* NGSPICE file created from user_project_wrapper.ext - technology: sky130B

* Black-box entry subcircuit for axi_node_intf_wrap abstract view
.subckt axi_node_intf_wrap clk m00_ar_addr[0] m00_ar_addr[10] m00_ar_addr[11] m00_ar_addr[12]
+ m00_ar_addr[13] m00_ar_addr[14] m00_ar_addr[15] m00_ar_addr[16] m00_ar_addr[17]
+ m00_ar_addr[18] m00_ar_addr[19] m00_ar_addr[1] m00_ar_addr[20] m00_ar_addr[21] m00_ar_addr[22]
+ m00_ar_addr[23] m00_ar_addr[24] m00_ar_addr[25] m00_ar_addr[26] m00_ar_addr[27]
+ m00_ar_addr[28] m00_ar_addr[29] m00_ar_addr[2] m00_ar_addr[30] m00_ar_addr[31] m00_ar_addr[3]
+ m00_ar_addr[4] m00_ar_addr[5] m00_ar_addr[6] m00_ar_addr[7] m00_ar_addr[8] m00_ar_addr[9]
+ m00_ar_burst[0] m00_ar_burst[1] m00_ar_cache[0] m00_ar_cache[1] m00_ar_cache[2]
+ m00_ar_cache[3] m00_ar_id[0] m00_ar_id[10] m00_ar_id[11] m00_ar_id[1] m00_ar_id[2]
+ m00_ar_id[3] m00_ar_id[4] m00_ar_id[5] m00_ar_id[6] m00_ar_id[7] m00_ar_id[8] m00_ar_id[9]
+ m00_ar_len[0] m00_ar_len[1] m00_ar_len[2] m00_ar_len[3] m00_ar_len[4] m00_ar_len[5]
+ m00_ar_len[6] m00_ar_len[7] m00_ar_lock m00_ar_prot[0] m00_ar_prot[1] m00_ar_prot[2]
+ m00_ar_qos[0] m00_ar_qos[1] m00_ar_qos[2] m00_ar_qos[3] m00_ar_ready m00_ar_region[0]
+ m00_ar_region[1] m00_ar_region[2] m00_ar_region[3] m00_ar_size[0] m00_ar_size[1]
+ m00_ar_size[2] m00_ar_user[-1] m00_ar_user[0] m00_ar_valid m00_aw_addr[0] m00_aw_addr[10]
+ m00_aw_addr[11] m00_aw_addr[12] m00_aw_addr[13] m00_aw_addr[14] m00_aw_addr[15]
+ m00_aw_addr[16] m00_aw_addr[17] m00_aw_addr[18] m00_aw_addr[19] m00_aw_addr[1] m00_aw_addr[20]
+ m00_aw_addr[21] m00_aw_addr[22] m00_aw_addr[23] m00_aw_addr[24] m00_aw_addr[25]
+ m00_aw_addr[26] m00_aw_addr[27] m00_aw_addr[28] m00_aw_addr[29] m00_aw_addr[2] m00_aw_addr[30]
+ m00_aw_addr[31] m00_aw_addr[3] m00_aw_addr[4] m00_aw_addr[5] m00_aw_addr[6] m00_aw_addr[7]
+ m00_aw_addr[8] m00_aw_addr[9] m00_aw_burst[0] m00_aw_burst[1] m00_aw_cache[0] m00_aw_cache[1]
+ m00_aw_cache[2] m00_aw_cache[3] m00_aw_id[0] m00_aw_id[10] m00_aw_id[11] m00_aw_id[1]
+ m00_aw_id[2] m00_aw_id[3] m00_aw_id[4] m00_aw_id[5] m00_aw_id[6] m00_aw_id[7] m00_aw_id[8]
+ m00_aw_id[9] m00_aw_len[0] m00_aw_len[1] m00_aw_len[2] m00_aw_len[3] m00_aw_len[4]
+ m00_aw_len[5] m00_aw_len[6] m00_aw_len[7] m00_aw_lock m00_aw_prot[0] m00_aw_prot[1]
+ m00_aw_prot[2] m00_aw_qos[0] m00_aw_qos[1] m00_aw_qos[2] m00_aw_qos[3] m00_aw_ready
+ m00_aw_region[0] m00_aw_region[1] m00_aw_region[2] m00_aw_region[3] m00_aw_size[0]
+ m00_aw_size[1] m00_aw_size[2] m00_aw_user[-1] m00_aw_user[0] m00_aw_valid m00_b_id[0]
+ m00_b_id[10] m00_b_id[11] m00_b_id[1] m00_b_id[2] m00_b_id[3] m00_b_id[4] m00_b_id[5]
+ m00_b_id[6] m00_b_id[7] m00_b_id[8] m00_b_id[9] m00_b_ready m00_b_resp[0] m00_b_resp[1]
+ m00_b_user[-1] m00_b_user[0] m00_b_valid m00_r_data[0] m00_r_data[10] m00_r_data[11]
+ m00_r_data[12] m00_r_data[13] m00_r_data[14] m00_r_data[15] m00_r_data[16] m00_r_data[17]
+ m00_r_data[18] m00_r_data[19] m00_r_data[1] m00_r_data[20] m00_r_data[21] m00_r_data[22]
+ m00_r_data[23] m00_r_data[24] m00_r_data[25] m00_r_data[26] m00_r_data[27] m00_r_data[28]
+ m00_r_data[29] m00_r_data[2] m00_r_data[30] m00_r_data[31] m00_r_data[3] m00_r_data[4]
+ m00_r_data[5] m00_r_data[6] m00_r_data[7] m00_r_data[8] m00_r_data[9] m00_r_id[0]
+ m00_r_id[10] m00_r_id[11] m00_r_id[1] m00_r_id[2] m00_r_id[3] m00_r_id[4] m00_r_id[5]
+ m00_r_id[6] m00_r_id[7] m00_r_id[8] m00_r_id[9] m00_r_last m00_r_ready m00_r_resp[0]
+ m00_r_resp[1] m00_r_user[-1] m00_r_user[0] m00_r_valid m00_w_data[0] m00_w_data[10]
+ m00_w_data[11] m00_w_data[12] m00_w_data[13] m00_w_data[14] m00_w_data[15] m00_w_data[16]
+ m00_w_data[17] m00_w_data[18] m00_w_data[19] m00_w_data[1] m00_w_data[20] m00_w_data[21]
+ m00_w_data[22] m00_w_data[23] m00_w_data[24] m00_w_data[25] m00_w_data[26] m00_w_data[27]
+ m00_w_data[28] m00_w_data[29] m00_w_data[2] m00_w_data[30] m00_w_data[31] m00_w_data[3]
+ m00_w_data[4] m00_w_data[5] m00_w_data[6] m00_w_data[7] m00_w_data[8] m00_w_data[9]
+ m00_w_last m00_w_ready m00_w_strb[0] m00_w_strb[1] m00_w_strb[2] m00_w_strb[3] m00_w_user[-1]
+ m00_w_user[0] m00_w_valid m01_ar_addr[0] m01_ar_addr[10] m01_ar_addr[11] m01_ar_addr[12]
+ m01_ar_addr[13] m01_ar_addr[14] m01_ar_addr[15] m01_ar_addr[16] m01_ar_addr[17]
+ m01_ar_addr[18] m01_ar_addr[19] m01_ar_addr[1] m01_ar_addr[20] m01_ar_addr[21] m01_ar_addr[22]
+ m01_ar_addr[23] m01_ar_addr[24] m01_ar_addr[25] m01_ar_addr[26] m01_ar_addr[27]
+ m01_ar_addr[28] m01_ar_addr[29] m01_ar_addr[2] m01_ar_addr[30] m01_ar_addr[31] m01_ar_addr[3]
+ m01_ar_addr[4] m01_ar_addr[5] m01_ar_addr[6] m01_ar_addr[7] m01_ar_addr[8] m01_ar_addr[9]
+ m01_ar_burst[0] m01_ar_burst[1] m01_ar_cache[0] m01_ar_cache[1] m01_ar_cache[2]
+ m01_ar_cache[3] m01_ar_id[0] m01_ar_id[10] m01_ar_id[11] m01_ar_id[1] m01_ar_id[2]
+ m01_ar_id[3] m01_ar_id[4] m01_ar_id[5] m01_ar_id[6] m01_ar_id[7] m01_ar_id[8] m01_ar_id[9]
+ m01_ar_len[0] m01_ar_len[1] m01_ar_len[2] m01_ar_len[3] m01_ar_len[4] m01_ar_len[5]
+ m01_ar_len[6] m01_ar_len[7] m01_ar_lock m01_ar_prot[0] m01_ar_prot[1] m01_ar_prot[2]
+ m01_ar_qos[0] m01_ar_qos[1] m01_ar_qos[2] m01_ar_qos[3] m01_ar_ready m01_ar_region[0]
+ m01_ar_region[1] m01_ar_region[2] m01_ar_region[3] m01_ar_size[0] m01_ar_size[1]
+ m01_ar_size[2] m01_ar_user[-1] m01_ar_user[0] m01_ar_valid m01_aw_addr[0] m01_aw_addr[10]
+ m01_aw_addr[11] m01_aw_addr[12] m01_aw_addr[13] m01_aw_addr[14] m01_aw_addr[15]
+ m01_aw_addr[16] m01_aw_addr[17] m01_aw_addr[18] m01_aw_addr[19] m01_aw_addr[1] m01_aw_addr[20]
+ m01_aw_addr[21] m01_aw_addr[22] m01_aw_addr[23] m01_aw_addr[24] m01_aw_addr[25]
+ m01_aw_addr[26] m01_aw_addr[27] m01_aw_addr[28] m01_aw_addr[29] m01_aw_addr[2] m01_aw_addr[30]
+ m01_aw_addr[31] m01_aw_addr[3] m01_aw_addr[4] m01_aw_addr[5] m01_aw_addr[6] m01_aw_addr[7]
+ m01_aw_addr[8] m01_aw_addr[9] m01_aw_burst[0] m01_aw_burst[1] m01_aw_cache[0] m01_aw_cache[1]
+ m01_aw_cache[2] m01_aw_cache[3] m01_aw_id[0] m01_aw_id[10] m01_aw_id[11] m01_aw_id[1]
+ m01_aw_id[2] m01_aw_id[3] m01_aw_id[4] m01_aw_id[5] m01_aw_id[6] m01_aw_id[7] m01_aw_id[8]
+ m01_aw_id[9] m01_aw_len[0] m01_aw_len[1] m01_aw_len[2] m01_aw_len[3] m01_aw_len[4]
+ m01_aw_len[5] m01_aw_len[6] m01_aw_len[7] m01_aw_lock m01_aw_prot[0] m01_aw_prot[1]
+ m01_aw_prot[2] m01_aw_qos[0] m01_aw_qos[1] m01_aw_qos[2] m01_aw_qos[3] m01_aw_ready
+ m01_aw_region[0] m01_aw_region[1] m01_aw_region[2] m01_aw_region[3] m01_aw_size[0]
+ m01_aw_size[1] m01_aw_size[2] m01_aw_user[-1] m01_aw_user[0] m01_aw_valid m01_b_id[0]
+ m01_b_id[10] m01_b_id[11] m01_b_id[1] m01_b_id[2] m01_b_id[3] m01_b_id[4] m01_b_id[5]
+ m01_b_id[6] m01_b_id[7] m01_b_id[8] m01_b_id[9] m01_b_ready m01_b_resp[0] m01_b_resp[1]
+ m01_b_user[-1] m01_b_user[0] m01_b_valid m01_r_data[0] m01_r_data[10] m01_r_data[11]
+ m01_r_data[12] m01_r_data[13] m01_r_data[14] m01_r_data[15] m01_r_data[16] m01_r_data[17]
+ m01_r_data[18] m01_r_data[19] m01_r_data[1] m01_r_data[20] m01_r_data[21] m01_r_data[22]
+ m01_r_data[23] m01_r_data[24] m01_r_data[25] m01_r_data[26] m01_r_data[27] m01_r_data[28]
+ m01_r_data[29] m01_r_data[2] m01_r_data[30] m01_r_data[31] m01_r_data[3] m01_r_data[4]
+ m01_r_data[5] m01_r_data[6] m01_r_data[7] m01_r_data[8] m01_r_data[9] m01_r_id[0]
+ m01_r_id[10] m01_r_id[11] m01_r_id[1] m01_r_id[2] m01_r_id[3] m01_r_id[4] m01_r_id[5]
+ m01_r_id[6] m01_r_id[7] m01_r_id[8] m01_r_id[9] m01_r_last m01_r_ready m01_r_resp[0]
+ m01_r_resp[1] m01_r_user[-1] m01_r_user[0] m01_r_valid m01_w_data[0] m01_w_data[10]
+ m01_w_data[11] m01_w_data[12] m01_w_data[13] m01_w_data[14] m01_w_data[15] m01_w_data[16]
+ m01_w_data[17] m01_w_data[18] m01_w_data[19] m01_w_data[1] m01_w_data[20] m01_w_data[21]
+ m01_w_data[22] m01_w_data[23] m01_w_data[24] m01_w_data[25] m01_w_data[26] m01_w_data[27]
+ m01_w_data[28] m01_w_data[29] m01_w_data[2] m01_w_data[30] m01_w_data[31] m01_w_data[3]
+ m01_w_data[4] m01_w_data[5] m01_w_data[6] m01_w_data[7] m01_w_data[8] m01_w_data[9]
+ m01_w_last m01_w_ready m01_w_strb[0] m01_w_strb[1] m01_w_strb[2] m01_w_strb[3] m01_w_user[-1]
+ m01_w_user[0] m01_w_valid m02_ar_addr[0] m02_ar_addr[10] m02_ar_addr[11] m02_ar_addr[12]
+ m02_ar_addr[13] m02_ar_addr[14] m02_ar_addr[15] m02_ar_addr[16] m02_ar_addr[17]
+ m02_ar_addr[18] m02_ar_addr[19] m02_ar_addr[1] m02_ar_addr[20] m02_ar_addr[21] m02_ar_addr[22]
+ m02_ar_addr[23] m02_ar_addr[24] m02_ar_addr[25] m02_ar_addr[26] m02_ar_addr[27]
+ m02_ar_addr[28] m02_ar_addr[29] m02_ar_addr[2] m02_ar_addr[30] m02_ar_addr[31] m02_ar_addr[3]
+ m02_ar_addr[4] m02_ar_addr[5] m02_ar_addr[6] m02_ar_addr[7] m02_ar_addr[8] m02_ar_addr[9]
+ m02_ar_burst[0] m02_ar_burst[1] m02_ar_cache[0] m02_ar_cache[1] m02_ar_cache[2]
+ m02_ar_cache[3] m02_ar_id[0] m02_ar_id[10] m02_ar_id[11] m02_ar_id[1] m02_ar_id[2]
+ m02_ar_id[3] m02_ar_id[4] m02_ar_id[5] m02_ar_id[6] m02_ar_id[7] m02_ar_id[8] m02_ar_id[9]
+ m02_ar_len[0] m02_ar_len[1] m02_ar_len[2] m02_ar_len[3] m02_ar_len[4] m02_ar_len[5]
+ m02_ar_len[6] m02_ar_len[7] m02_ar_lock m02_ar_prot[0] m02_ar_prot[1] m02_ar_prot[2]
+ m02_ar_qos[0] m02_ar_qos[1] m02_ar_qos[2] m02_ar_qos[3] m02_ar_ready m02_ar_region[0]
+ m02_ar_region[1] m02_ar_region[2] m02_ar_region[3] m02_ar_size[0] m02_ar_size[1]
+ m02_ar_size[2] m02_ar_user[-1] m02_ar_user[0] m02_ar_valid m02_aw_addr[0] m02_aw_addr[10]
+ m02_aw_addr[11] m02_aw_addr[12] m02_aw_addr[13] m02_aw_addr[14] m02_aw_addr[15]
+ m02_aw_addr[16] m02_aw_addr[17] m02_aw_addr[18] m02_aw_addr[19] m02_aw_addr[1] m02_aw_addr[20]
+ m02_aw_addr[21] m02_aw_addr[22] m02_aw_addr[23] m02_aw_addr[24] m02_aw_addr[25]
+ m02_aw_addr[26] m02_aw_addr[27] m02_aw_addr[28] m02_aw_addr[29] m02_aw_addr[2] m02_aw_addr[30]
+ m02_aw_addr[31] m02_aw_addr[3] m02_aw_addr[4] m02_aw_addr[5] m02_aw_addr[6] m02_aw_addr[7]
+ m02_aw_addr[8] m02_aw_addr[9] m02_aw_burst[0] m02_aw_burst[1] m02_aw_cache[0] m02_aw_cache[1]
+ m02_aw_cache[2] m02_aw_cache[3] m02_aw_id[0] m02_aw_id[10] m02_aw_id[11] m02_aw_id[1]
+ m02_aw_id[2] m02_aw_id[3] m02_aw_id[4] m02_aw_id[5] m02_aw_id[6] m02_aw_id[7] m02_aw_id[8]
+ m02_aw_id[9] m02_aw_len[0] m02_aw_len[1] m02_aw_len[2] m02_aw_len[3] m02_aw_len[4]
+ m02_aw_len[5] m02_aw_len[6] m02_aw_len[7] m02_aw_lock m02_aw_prot[0] m02_aw_prot[1]
+ m02_aw_prot[2] m02_aw_qos[0] m02_aw_qos[1] m02_aw_qos[2] m02_aw_qos[3] m02_aw_ready
+ m02_aw_region[0] m02_aw_region[1] m02_aw_region[2] m02_aw_region[3] m02_aw_size[0]
+ m02_aw_size[1] m02_aw_size[2] m02_aw_user[-1] m02_aw_user[0] m02_aw_valid m02_b_id[0]
+ m02_b_id[10] m02_b_id[11] m02_b_id[1] m02_b_id[2] m02_b_id[3] m02_b_id[4] m02_b_id[5]
+ m02_b_id[6] m02_b_id[7] m02_b_id[8] m02_b_id[9] m02_b_ready m02_b_resp[0] m02_b_resp[1]
+ m02_b_user[-1] m02_b_user[0] m02_b_valid m02_r_data[0] m02_r_data[10] m02_r_data[11]
+ m02_r_data[12] m02_r_data[13] m02_r_data[14] m02_r_data[15] m02_r_data[16] m02_r_data[17]
+ m02_r_data[18] m02_r_data[19] m02_r_data[1] m02_r_data[20] m02_r_data[21] m02_r_data[22]
+ m02_r_data[23] m02_r_data[24] m02_r_data[25] m02_r_data[26] m02_r_data[27] m02_r_data[28]
+ m02_r_data[29] m02_r_data[2] m02_r_data[30] m02_r_data[31] m02_r_data[3] m02_r_data[4]
+ m02_r_data[5] m02_r_data[6] m02_r_data[7] m02_r_data[8] m02_r_data[9] m02_r_id[0]
+ m02_r_id[10] m02_r_id[11] m02_r_id[1] m02_r_id[2] m02_r_id[3] m02_r_id[4] m02_r_id[5]
+ m02_r_id[6] m02_r_id[7] m02_r_id[8] m02_r_id[9] m02_r_last m02_r_ready m02_r_resp[0]
+ m02_r_resp[1] m02_r_user[-1] m02_r_user[0] m02_r_valid m02_w_data[0] m02_w_data[10]
+ m02_w_data[11] m02_w_data[12] m02_w_data[13] m02_w_data[14] m02_w_data[15] m02_w_data[16]
+ m02_w_data[17] m02_w_data[18] m02_w_data[19] m02_w_data[1] m02_w_data[20] m02_w_data[21]
+ m02_w_data[22] m02_w_data[23] m02_w_data[24] m02_w_data[25] m02_w_data[26] m02_w_data[27]
+ m02_w_data[28] m02_w_data[29] m02_w_data[2] m02_w_data[30] m02_w_data[31] m02_w_data[3]
+ m02_w_data[4] m02_w_data[5] m02_w_data[6] m02_w_data[7] m02_w_data[8] m02_w_data[9]
+ m02_w_last m02_w_ready m02_w_strb[0] m02_w_strb[1] m02_w_strb[2] m02_w_strb[3] m02_w_user[-1]
+ m02_w_user[0] m02_w_valid rst_n s00_ar_addr[0] s00_ar_addr[10] s00_ar_addr[11] s00_ar_addr[12]
+ s00_ar_addr[13] s00_ar_addr[14] s00_ar_addr[15] s00_ar_addr[16] s00_ar_addr[17]
+ s00_ar_addr[18] s00_ar_addr[19] s00_ar_addr[1] s00_ar_addr[20] s00_ar_addr[21] s00_ar_addr[22]
+ s00_ar_addr[23] s00_ar_addr[24] s00_ar_addr[25] s00_ar_addr[26] s00_ar_addr[27]
+ s00_ar_addr[28] s00_ar_addr[29] s00_ar_addr[2] s00_ar_addr[30] s00_ar_addr[31] s00_ar_addr[3]
+ s00_ar_addr[4] s00_ar_addr[5] s00_ar_addr[6] s00_ar_addr[7] s00_ar_addr[8] s00_ar_addr[9]
+ s00_ar_burst[0] s00_ar_burst[1] s00_ar_cache[0] s00_ar_cache[1] s00_ar_cache[2]
+ s00_ar_cache[3] s00_ar_id[0] s00_ar_id[1] s00_ar_id[2] s00_ar_id[3] s00_ar_id[4]
+ s00_ar_id[5] s00_ar_id[6] s00_ar_id[7] s00_ar_id[8] s00_ar_id[9] s00_ar_len[0] s00_ar_len[1]
+ s00_ar_len[2] s00_ar_len[3] s00_ar_len[4] s00_ar_len[5] s00_ar_len[6] s00_ar_len[7]
+ s00_ar_lock s00_ar_prot[0] s00_ar_prot[1] s00_ar_prot[2] s00_ar_qos[0] s00_ar_qos[1]
+ s00_ar_qos[2] s00_ar_qos[3] s00_ar_ready s00_ar_region[0] s00_ar_region[1] s00_ar_region[2]
+ s00_ar_region[3] s00_ar_size[0] s00_ar_size[1] s00_ar_size[2] s00_ar_user[-1] s00_ar_user[0]
+ s00_ar_valid s00_aw_addr[0] s00_aw_addr[10] s00_aw_addr[11] s00_aw_addr[12] s00_aw_addr[13]
+ s00_aw_addr[14] s00_aw_addr[15] s00_aw_addr[16] s00_aw_addr[17] s00_aw_addr[18]
+ s00_aw_addr[19] s00_aw_addr[1] s00_aw_addr[20] s00_aw_addr[21] s00_aw_addr[22] s00_aw_addr[23]
+ s00_aw_addr[24] s00_aw_addr[25] s00_aw_addr[26] s00_aw_addr[27] s00_aw_addr[28]
+ s00_aw_addr[29] s00_aw_addr[2] s00_aw_addr[30] s00_aw_addr[31] s00_aw_addr[3] s00_aw_addr[4]
+ s00_aw_addr[5] s00_aw_addr[6] s00_aw_addr[7] s00_aw_addr[8] s00_aw_addr[9] s00_aw_burst[0]
+ s00_aw_burst[1] s00_aw_cache[0] s00_aw_cache[1] s00_aw_cache[2] s00_aw_cache[3]
+ s00_aw_id[0] s00_aw_id[1] s00_aw_id[2] s00_aw_id[3] s00_aw_id[4] s00_aw_id[5] s00_aw_id[6]
+ s00_aw_id[7] s00_aw_id[8] s00_aw_id[9] s00_aw_len[0] s00_aw_len[1] s00_aw_len[2]
+ s00_aw_len[3] s00_aw_len[4] s00_aw_len[5] s00_aw_len[6] s00_aw_len[7] s00_aw_lock
+ s00_aw_prot[0] s00_aw_prot[1] s00_aw_prot[2] s00_aw_qos[0] s00_aw_qos[1] s00_aw_qos[2]
+ s00_aw_qos[3] s00_aw_ready s00_aw_region[0] s00_aw_region[1] s00_aw_region[2] s00_aw_region[3]
+ s00_aw_size[0] s00_aw_size[1] s00_aw_size[2] s00_aw_user[-1] s00_aw_user[0] s00_aw_valid
+ s00_b_id[0] s00_b_id[1] s00_b_id[2] s00_b_id[3] s00_b_id[4] s00_b_id[5] s00_b_id[6]
+ s00_b_id[7] s00_b_id[8] s00_b_id[9] s00_b_ready s00_b_resp[0] s00_b_resp[1] s00_b_user[-1]
+ s00_b_user[0] s00_b_valid s00_r_data[0] s00_r_data[10] s00_r_data[11] s00_r_data[12]
+ s00_r_data[13] s00_r_data[14] s00_r_data[15] s00_r_data[16] s00_r_data[17] s00_r_data[18]
+ s00_r_data[19] s00_r_data[1] s00_r_data[20] s00_r_data[21] s00_r_data[22] s00_r_data[23]
+ s00_r_data[24] s00_r_data[25] s00_r_data[26] s00_r_data[27] s00_r_data[28] s00_r_data[29]
+ s00_r_data[2] s00_r_data[30] s00_r_data[31] s00_r_data[3] s00_r_data[4] s00_r_data[5]
+ s00_r_data[6] s00_r_data[7] s00_r_data[8] s00_r_data[9] s00_r_id[0] s00_r_id[1]
+ s00_r_id[2] s00_r_id[3] s00_r_id[4] s00_r_id[5] s00_r_id[6] s00_r_id[7] s00_r_id[8]
+ s00_r_id[9] s00_r_last s00_r_ready s00_r_resp[0] s00_r_resp[1] s00_r_user[-1] s00_r_user[0]
+ s00_r_valid s00_w_data[0] s00_w_data[10] s00_w_data[11] s00_w_data[12] s00_w_data[13]
+ s00_w_data[14] s00_w_data[15] s00_w_data[16] s00_w_data[17] s00_w_data[18] s00_w_data[19]
+ s00_w_data[1] s00_w_data[20] s00_w_data[21] s00_w_data[22] s00_w_data[23] s00_w_data[24]
+ s00_w_data[25] s00_w_data[26] s00_w_data[27] s00_w_data[28] s00_w_data[29] s00_w_data[2]
+ s00_w_data[30] s00_w_data[31] s00_w_data[3] s00_w_data[4] s00_w_data[5] s00_w_data[6]
+ s00_w_data[7] s00_w_data[8] s00_w_data[9] s00_w_last s00_w_ready s00_w_strb[0] s00_w_strb[1]
+ s00_w_strb[2] s00_w_strb[3] s00_w_user[-1] s00_w_user[0] s00_w_valid s01_ar_addr[0]
+ s01_ar_addr[10] s01_ar_addr[11] s01_ar_addr[12] s01_ar_addr[13] s01_ar_addr[14]
+ s01_ar_addr[15] s01_ar_addr[16] s01_ar_addr[17] s01_ar_addr[18] s01_ar_addr[19]
+ s01_ar_addr[1] s01_ar_addr[20] s01_ar_addr[21] s01_ar_addr[22] s01_ar_addr[23] s01_ar_addr[24]
+ s01_ar_addr[25] s01_ar_addr[26] s01_ar_addr[27] s01_ar_addr[28] s01_ar_addr[29]
+ s01_ar_addr[2] s01_ar_addr[30] s01_ar_addr[31] s01_ar_addr[3] s01_ar_addr[4] s01_ar_addr[5]
+ s01_ar_addr[6] s01_ar_addr[7] s01_ar_addr[8] s01_ar_addr[9] s01_ar_burst[0] s01_ar_burst[1]
+ s01_ar_cache[0] s01_ar_cache[1] s01_ar_cache[2] s01_ar_cache[3] s01_ar_id[0] s01_ar_id[1]
+ s01_ar_id[2] s01_ar_id[3] s01_ar_id[4] s01_ar_id[5] s01_ar_id[6] s01_ar_id[7] s01_ar_id[8]
+ s01_ar_id[9] s01_ar_len[0] s01_ar_len[1] s01_ar_len[2] s01_ar_len[3] s01_ar_len[4]
+ s01_ar_len[5] s01_ar_len[6] s01_ar_len[7] s01_ar_lock s01_ar_prot[0] s01_ar_prot[1]
+ s01_ar_prot[2] s01_ar_qos[0] s01_ar_qos[1] s01_ar_qos[2] s01_ar_qos[3] s01_ar_ready
+ s01_ar_region[0] s01_ar_region[1] s01_ar_region[2] s01_ar_region[3] s01_ar_size[0]
+ s01_ar_size[1] s01_ar_size[2] s01_ar_user[-1] s01_ar_user[0] s01_ar_valid s01_aw_addr[0]
+ s01_aw_addr[10] s01_aw_addr[11] s01_aw_addr[12] s01_aw_addr[13] s01_aw_addr[14]
+ s01_aw_addr[15] s01_aw_addr[16] s01_aw_addr[17] s01_aw_addr[18] s01_aw_addr[19]
+ s01_aw_addr[1] s01_aw_addr[20] s01_aw_addr[21] s01_aw_addr[22] s01_aw_addr[23] s01_aw_addr[24]
+ s01_aw_addr[25] s01_aw_addr[26] s01_aw_addr[27] s01_aw_addr[28] s01_aw_addr[29]
+ s01_aw_addr[2] s01_aw_addr[30] s01_aw_addr[31] s01_aw_addr[3] s01_aw_addr[4] s01_aw_addr[5]
+ s01_aw_addr[6] s01_aw_addr[7] s01_aw_addr[8] s01_aw_addr[9] s01_aw_burst[0] s01_aw_burst[1]
+ s01_aw_cache[0] s01_aw_cache[1] s01_aw_cache[2] s01_aw_cache[3] s01_aw_id[0] s01_aw_id[1]
+ s01_aw_id[2] s01_aw_id[3] s01_aw_id[4] s01_aw_id[5] s01_aw_id[6] s01_aw_id[7] s01_aw_id[8]
+ s01_aw_id[9] s01_aw_len[0] s01_aw_len[1] s01_aw_len[2] s01_aw_len[3] s01_aw_len[4]
+ s01_aw_len[5] s01_aw_len[6] s01_aw_len[7] s01_aw_lock s01_aw_prot[0] s01_aw_prot[1]
+ s01_aw_prot[2] s01_aw_qos[0] s01_aw_qos[1] s01_aw_qos[2] s01_aw_qos[3] s01_aw_ready
+ s01_aw_region[0] s01_aw_region[1] s01_aw_region[2] s01_aw_region[3] s01_aw_size[0]
+ s01_aw_size[1] s01_aw_size[2] s01_aw_user[-1] s01_aw_user[0] s01_aw_valid s01_b_id[0]
+ s01_b_id[1] s01_b_id[2] s01_b_id[3] s01_b_id[4] s01_b_id[5] s01_b_id[6] s01_b_id[7]
+ s01_b_id[8] s01_b_id[9] s01_b_ready s01_b_resp[0] s01_b_resp[1] s01_b_user[-1] s01_b_user[0]
+ s01_b_valid s01_r_data[0] s01_r_data[10] s01_r_data[11] s01_r_data[12] s01_r_data[13]
+ s01_r_data[14] s01_r_data[15] s01_r_data[16] s01_r_data[17] s01_r_data[18] s01_r_data[19]
+ s01_r_data[1] s01_r_data[20] s01_r_data[21] s01_r_data[22] s01_r_data[23] s01_r_data[24]
+ s01_r_data[25] s01_r_data[26] s01_r_data[27] s01_r_data[28] s01_r_data[29] s01_r_data[2]
+ s01_r_data[30] s01_r_data[31] s01_r_data[3] s01_r_data[4] s01_r_data[5] s01_r_data[6]
+ s01_r_data[7] s01_r_data[8] s01_r_data[9] s01_r_id[0] s01_r_id[1] s01_r_id[2] s01_r_id[3]
+ s01_r_id[4] s01_r_id[5] s01_r_id[6] s01_r_id[7] s01_r_id[8] s01_r_id[9] s01_r_last
+ s01_r_ready s01_r_resp[0] s01_r_resp[1] s01_r_user[-1] s01_r_user[0] s01_r_valid
+ s01_w_data[0] s01_w_data[10] s01_w_data[11] s01_w_data[12] s01_w_data[13] s01_w_data[14]
+ s01_w_data[15] s01_w_data[16] s01_w_data[17] s01_w_data[18] s01_w_data[19] s01_w_data[1]
+ s01_w_data[20] s01_w_data[21] s01_w_data[22] s01_w_data[23] s01_w_data[24] s01_w_data[25]
+ s01_w_data[26] s01_w_data[27] s01_w_data[28] s01_w_data[29] s01_w_data[2] s01_w_data[30]
+ s01_w_data[31] s01_w_data[3] s01_w_data[4] s01_w_data[5] s01_w_data[6] s01_w_data[7]
+ s01_w_data[8] s01_w_data[9] s01_w_last s01_w_ready s01_w_strb[0] s01_w_strb[1] s01_w_strb[2]
+ s01_w_strb[3] s01_w_user[-1] s01_w_user[0] s01_w_valid s02_ar_addr[0] s02_ar_addr[10]
+ s02_ar_addr[11] s02_ar_addr[12] s02_ar_addr[13] s02_ar_addr[14] s02_ar_addr[15]
+ s02_ar_addr[16] s02_ar_addr[17] s02_ar_addr[18] s02_ar_addr[19] s02_ar_addr[1] s02_ar_addr[20]
+ s02_ar_addr[21] s02_ar_addr[22] s02_ar_addr[23] s02_ar_addr[24] s02_ar_addr[25]
+ s02_ar_addr[26] s02_ar_addr[27] s02_ar_addr[28] s02_ar_addr[29] s02_ar_addr[2] s02_ar_addr[30]
+ s02_ar_addr[31] s02_ar_addr[3] s02_ar_addr[4] s02_ar_addr[5] s02_ar_addr[6] s02_ar_addr[7]
+ s02_ar_addr[8] s02_ar_addr[9] s02_ar_burst[0] s02_ar_burst[1] s02_ar_cache[0] s02_ar_cache[1]
+ s02_ar_cache[2] s02_ar_cache[3] s02_ar_id[0] s02_ar_id[1] s02_ar_id[2] s02_ar_id[3]
+ s02_ar_id[4] s02_ar_id[5] s02_ar_id[6] s02_ar_id[7] s02_ar_id[8] s02_ar_id[9] s02_ar_len[0]
+ s02_ar_len[1] s02_ar_len[2] s02_ar_len[3] s02_ar_len[4] s02_ar_len[5] s02_ar_len[6]
+ s02_ar_len[7] s02_ar_lock s02_ar_prot[0] s02_ar_prot[1] s02_ar_prot[2] s02_ar_qos[0]
+ s02_ar_qos[1] s02_ar_qos[2] s02_ar_qos[3] s02_ar_ready s02_ar_region[0] s02_ar_region[1]
+ s02_ar_region[2] s02_ar_region[3] s02_ar_size[0] s02_ar_size[1] s02_ar_size[2] s02_ar_user[-1]
+ s02_ar_user[0] s02_ar_valid s02_aw_addr[0] s02_aw_addr[10] s02_aw_addr[11] s02_aw_addr[12]
+ s02_aw_addr[13] s02_aw_addr[14] s02_aw_addr[15] s02_aw_addr[16] s02_aw_addr[17]
+ s02_aw_addr[18] s02_aw_addr[19] s02_aw_addr[1] s02_aw_addr[20] s02_aw_addr[21] s02_aw_addr[22]
+ s02_aw_addr[23] s02_aw_addr[24] s02_aw_addr[25] s02_aw_addr[26] s02_aw_addr[27]
+ s02_aw_addr[28] s02_aw_addr[29] s02_aw_addr[2] s02_aw_addr[30] s02_aw_addr[31] s02_aw_addr[3]
+ s02_aw_addr[4] s02_aw_addr[5] s02_aw_addr[6] s02_aw_addr[7] s02_aw_addr[8] s02_aw_addr[9]
+ s02_aw_burst[0] s02_aw_burst[1] s02_aw_cache[0] s02_aw_cache[1] s02_aw_cache[2]
+ s02_aw_cache[3] s02_aw_id[0] s02_aw_id[1] s02_aw_id[2] s02_aw_id[3] s02_aw_id[4]
+ s02_aw_id[5] s02_aw_id[6] s02_aw_id[7] s02_aw_id[8] s02_aw_id[9] s02_aw_len[0] s02_aw_len[1]
+ s02_aw_len[2] s02_aw_len[3] s02_aw_len[4] s02_aw_len[5] s02_aw_len[6] s02_aw_len[7]
+ s02_aw_lock s02_aw_prot[0] s02_aw_prot[1] s02_aw_prot[2] s02_aw_qos[0] s02_aw_qos[1]
+ s02_aw_qos[2] s02_aw_qos[3] s02_aw_ready s02_aw_region[0] s02_aw_region[1] s02_aw_region[2]
+ s02_aw_region[3] s02_aw_size[0] s02_aw_size[1] s02_aw_size[2] s02_aw_user[-1] s02_aw_user[0]
+ s02_aw_valid s02_b_id[0] s02_b_id[1] s02_b_id[2] s02_b_id[3] s02_b_id[4] s02_b_id[5]
+ s02_b_id[6] s02_b_id[7] s02_b_id[8] s02_b_id[9] s02_b_ready s02_b_resp[0] s02_b_resp[1]
+ s02_b_user[-1] s02_b_user[0] s02_b_valid s02_r_data[0] s02_r_data[10] s02_r_data[11]
+ s02_r_data[12] s02_r_data[13] s02_r_data[14] s02_r_data[15] s02_r_data[16] s02_r_data[17]
+ s02_r_data[18] s02_r_data[19] s02_r_data[1] s02_r_data[20] s02_r_data[21] s02_r_data[22]
+ s02_r_data[23] s02_r_data[24] s02_r_data[25] s02_r_data[26] s02_r_data[27] s02_r_data[28]
+ s02_r_data[29] s02_r_data[2] s02_r_data[30] s02_r_data[31] s02_r_data[3] s02_r_data[4]
+ s02_r_data[5] s02_r_data[6] s02_r_data[7] s02_r_data[8] s02_r_data[9] s02_r_id[0]
+ s02_r_id[1] s02_r_id[2] s02_r_id[3] s02_r_id[4] s02_r_id[5] s02_r_id[6] s02_r_id[7]
+ s02_r_id[8] s02_r_id[9] s02_r_last s02_r_ready s02_r_resp[0] s02_r_resp[1] s02_r_user[-1]
+ s02_r_user[0] s02_r_valid s02_w_data[0] s02_w_data[10] s02_w_data[11] s02_w_data[12]
+ s02_w_data[13] s02_w_data[14] s02_w_data[15] s02_w_data[16] s02_w_data[17] s02_w_data[18]
+ s02_w_data[19] s02_w_data[1] s02_w_data[20] s02_w_data[21] s02_w_data[22] s02_w_data[23]
+ s02_w_data[24] s02_w_data[25] s02_w_data[26] s02_w_data[27] s02_w_data[28] s02_w_data[29]
+ s02_w_data[2] s02_w_data[30] s02_w_data[31] s02_w_data[3] s02_w_data[4] s02_w_data[5]
+ s02_w_data[6] s02_w_data[7] s02_w_data[8] s02_w_data[9] s02_w_last s02_w_ready s02_w_strb[0]
+ s02_w_strb[1] s02_w_strb[2] s02_w_strb[3] s02_w_user[-1] s02_w_user[0] s02_w_valid
+ test_en_i vccd1 vssd1
.ends

* Black-box entry subcircuit for mba_core_region abstract view
.subckt mba_core_region boot_addr_i[0] boot_addr_i[10] boot_addr_i[11] boot_addr_i[12]
+ boot_addr_i[13] boot_addr_i[14] boot_addr_i[15] boot_addr_i[16] boot_addr_i[17]
+ boot_addr_i[18] boot_addr_i[19] boot_addr_i[1] boot_addr_i[20] boot_addr_i[21] boot_addr_i[22]
+ boot_addr_i[23] boot_addr_i[24] boot_addr_i[25] boot_addr_i[26] boot_addr_i[27]
+ boot_addr_i[28] boot_addr_i[29] boot_addr_i[2] boot_addr_i[30] boot_addr_i[31] boot_addr_i[3]
+ boot_addr_i[4] boot_addr_i[5] boot_addr_i[6] boot_addr_i[7] boot_addr_i[8] boot_addr_i[9]
+ clk clock_gating_i core_busy_o core_master_ar_addr[0] core_master_ar_addr[10] core_master_ar_addr[11]
+ core_master_ar_addr[12] core_master_ar_addr[13] core_master_ar_addr[14] core_master_ar_addr[15]
+ core_master_ar_addr[16] core_master_ar_addr[17] core_master_ar_addr[18] core_master_ar_addr[19]
+ core_master_ar_addr[1] core_master_ar_addr[20] core_master_ar_addr[21] core_master_ar_addr[22]
+ core_master_ar_addr[23] core_master_ar_addr[24] core_master_ar_addr[25] core_master_ar_addr[26]
+ core_master_ar_addr[27] core_master_ar_addr[28] core_master_ar_addr[29] core_master_ar_addr[2]
+ core_master_ar_addr[30] core_master_ar_addr[31] core_master_ar_addr[3] core_master_ar_addr[4]
+ core_master_ar_addr[5] core_master_ar_addr[6] core_master_ar_addr[7] core_master_ar_addr[8]
+ core_master_ar_addr[9] core_master_ar_burst[0] core_master_ar_burst[1] core_master_ar_cache[0]
+ core_master_ar_cache[1] core_master_ar_cache[2] core_master_ar_cache[3] core_master_ar_id[0]
+ core_master_ar_id[1] core_master_ar_id[2] core_master_ar_id[3] core_master_ar_id[4]
+ core_master_ar_id[5] core_master_ar_id[6] core_master_ar_id[7] core_master_ar_id[8]
+ core_master_ar_id[9] core_master_ar_len[0] core_master_ar_len[1] core_master_ar_len[2]
+ core_master_ar_len[3] core_master_ar_len[4] core_master_ar_len[5] core_master_ar_len[6]
+ core_master_ar_len[7] core_master_ar_lock core_master_ar_prot[0] core_master_ar_prot[1]
+ core_master_ar_prot[2] core_master_ar_qos[0] core_master_ar_qos[1] core_master_ar_qos[2]
+ core_master_ar_qos[3] core_master_ar_ready core_master_ar_region[0] core_master_ar_region[1]
+ core_master_ar_region[2] core_master_ar_region[3] core_master_ar_size[0] core_master_ar_size[1]
+ core_master_ar_size[2] core_master_ar_user[-1] core_master_ar_user[0] core_master_ar_valid
+ core_master_aw_addr[0] core_master_aw_addr[10] core_master_aw_addr[11] core_master_aw_addr[12]
+ core_master_aw_addr[13] core_master_aw_addr[14] core_master_aw_addr[15] core_master_aw_addr[16]
+ core_master_aw_addr[17] core_master_aw_addr[18] core_master_aw_addr[19] core_master_aw_addr[1]
+ core_master_aw_addr[20] core_master_aw_addr[21] core_master_aw_addr[22] core_master_aw_addr[23]
+ core_master_aw_addr[24] core_master_aw_addr[25] core_master_aw_addr[26] core_master_aw_addr[27]
+ core_master_aw_addr[28] core_master_aw_addr[29] core_master_aw_addr[2] core_master_aw_addr[30]
+ core_master_aw_addr[31] core_master_aw_addr[3] core_master_aw_addr[4] core_master_aw_addr[5]
+ core_master_aw_addr[6] core_master_aw_addr[7] core_master_aw_addr[8] core_master_aw_addr[9]
+ core_master_aw_burst[0] core_master_aw_burst[1] core_master_aw_cache[0] core_master_aw_cache[1]
+ core_master_aw_cache[2] core_master_aw_cache[3] core_master_aw_id[0] core_master_aw_id[1]
+ core_master_aw_id[2] core_master_aw_id[3] core_master_aw_id[4] core_master_aw_id[5]
+ core_master_aw_id[6] core_master_aw_id[7] core_master_aw_id[8] core_master_aw_id[9]
+ core_master_aw_len[0] core_master_aw_len[1] core_master_aw_len[2] core_master_aw_len[3]
+ core_master_aw_len[4] core_master_aw_len[5] core_master_aw_len[6] core_master_aw_len[7]
+ core_master_aw_lock core_master_aw_prot[0] core_master_aw_prot[1] core_master_aw_prot[2]
+ core_master_aw_qos[0] core_master_aw_qos[1] core_master_aw_qos[2] core_master_aw_qos[3]
+ core_master_aw_ready core_master_aw_region[0] core_master_aw_region[1] core_master_aw_region[2]
+ core_master_aw_region[3] core_master_aw_size[0] core_master_aw_size[1] core_master_aw_size[2]
+ core_master_aw_user[-1] core_master_aw_user[0] core_master_aw_valid core_master_b_id[0]
+ core_master_b_id[1] core_master_b_id[2] core_master_b_id[3] core_master_b_id[4]
+ core_master_b_id[5] core_master_b_id[6] core_master_b_id[7] core_master_b_id[8]
+ core_master_b_id[9] core_master_b_ready core_master_b_resp[0] core_master_b_resp[1]
+ core_master_b_user[-1] core_master_b_user[0] core_master_b_valid core_master_r_data[0]
+ core_master_r_data[10] core_master_r_data[11] core_master_r_data[12] core_master_r_data[13]
+ core_master_r_data[14] core_master_r_data[15] core_master_r_data[16] core_master_r_data[17]
+ core_master_r_data[18] core_master_r_data[19] core_master_r_data[1] core_master_r_data[20]
+ core_master_r_data[21] core_master_r_data[22] core_master_r_data[23] core_master_r_data[24]
+ core_master_r_data[25] core_master_r_data[26] core_master_r_data[27] core_master_r_data[28]
+ core_master_r_data[29] core_master_r_data[2] core_master_r_data[30] core_master_r_data[31]
+ core_master_r_data[32] core_master_r_data[33] core_master_r_data[34] core_master_r_data[35]
+ core_master_r_data[36] core_master_r_data[37] core_master_r_data[38] core_master_r_data[39]
+ core_master_r_data[3] core_master_r_data[40] core_master_r_data[41] core_master_r_data[42]
+ core_master_r_data[43] core_master_r_data[44] core_master_r_data[45] core_master_r_data[46]
+ core_master_r_data[47] core_master_r_data[48] core_master_r_data[49] core_master_r_data[4]
+ core_master_r_data[50] core_master_r_data[51] core_master_r_data[52] core_master_r_data[53]
+ core_master_r_data[54] core_master_r_data[55] core_master_r_data[56] core_master_r_data[57]
+ core_master_r_data[58] core_master_r_data[59] core_master_r_data[5] core_master_r_data[60]
+ core_master_r_data[61] core_master_r_data[62] core_master_r_data[63] core_master_r_data[6]
+ core_master_r_data[7] core_master_r_data[8] core_master_r_data[9] core_master_r_id[0]
+ core_master_r_id[1] core_master_r_id[2] core_master_r_id[3] core_master_r_id[4]
+ core_master_r_id[5] core_master_r_id[6] core_master_r_id[7] core_master_r_id[8]
+ core_master_r_id[9] core_master_r_last core_master_r_ready core_master_r_resp[0]
+ core_master_r_resp[1] core_master_r_user[-1] core_master_r_user[0] core_master_r_valid
+ core_master_w_data[0] core_master_w_data[10] core_master_w_data[11] core_master_w_data[12]
+ core_master_w_data[13] core_master_w_data[14] core_master_w_data[15] core_master_w_data[16]
+ core_master_w_data[17] core_master_w_data[18] core_master_w_data[19] core_master_w_data[1]