*SPEF "ieee 1481-1999"
*DESIGN "clk_rst_gen"
*DATE "11:11:11 Fri 11 11, 1111"
*VENDOR "OpenRCX"
*PROGRAM "Parallel Extraction"
*VERSION "1.0"
*DESIGN_FLOW "NAME_SCOPE LOCAL" "PIN_CAP NONE"
*DIVIDER /
*DELIMITER :
*BUS_DELIMITER []
*T_UNIT 1 NS
*C_UNIT 1 PF
*R_UNIT 1 OHM
*L_UNIT 1 HENRY

*NAME_MAP
*1 clk_i
*2 clk_o
*3 clk_sel_i
*4 clk_standalone_i
*5 fll_ack_o
*6 fll_add_i[0]
*7 fll_add_i[1]
*8 fll_data_i[0]
*9 fll_data_i[10]
*10 fll_data_i[11]
*11 fll_data_i[12]
*12 fll_data_i[13]
*13 fll_data_i[14]
*14 fll_data_i[15]
*15 fll_data_i[16]
*16 fll_data_i[17]
*17 fll_data_i[18]
*18 fll_data_i[19]
*19 fll_data_i[1]
*20 fll_data_i[20]
*21 fll_data_i[21]
*22 fll_data_i[22]
*23 fll_data_i[23]
*24 fll_data_i[24]
*25 fll_data_i[25]
*26 fll_data_i[26]
*27 fll_data_i[27]
*28 fll_data_i[28]
*29 fll_data_i[29]
*30 fll_data_i[2]
*31 fll_data_i[30]
*32 fll_data_i[31]
*33 fll_data_i[3]
*34 fll_data_i[4]
*35 fll_data_i[5]
*36 fll_data_i[6]
*37 fll_data_i[7]
*38 fll_data_i[8]
*39 fll_data_i[9]
*40 net7
*41 net8
*42 net18
*43 net19
*44 net20
*45 net21
*46 net22
*47 net23
*48 net24
*49 net25
*50 net26
*51 net27
*52 net9
*53 net28
*54 net29
*55 net30
*56 net31
*57 net32
*58 net33
*59 net34
*60 net35
*61 net36
*62 net37
*63 net10
*64 net38
*65 net39
*66 net11
*67 net12
*68 net13
*69 net14
*70 net15
*71 net16
*72 net17
*73 fll_req_i
*74 fll_wrn_i
*75 net154
*76 net164
*77 net165
*78 net166
*79 net167
*80 net168
*81 net169
*82 net170
*83 net171
*84 net172
*85 net173
*86 net155
*87 net174
*88 net175
*89 net176
*90 net177
*91 net178
*92 net179
*93 net40
*94 net41
*95 net42
*96 net43
*97 net156
*98 net44
*99 net45
*100 net46
*101 net47
*102 net48
*103 net49
*104 net50
*105 net51
*106 net157
*107 net158
*108 net159
*109 net160
*110 net161
*111 net162
*112 net163
*113 net180
*114 net190
*115 net191
*116 net192
*117 net193
*118 net194
*119 net195
*120 net196
*121 net197
*122 net198
*123 net199
*124 net181
*125 net200
*126 net201
*127 net202
*128 net203
*129 net204
*130 net205
*131 net182
*132 net183
*133 net184
*134 net185
*135 net186
*136 net187
*137 net188
*138 net189
*139 net52
*140 net62
*141 net63
*142 net64
*143 net65
*144 net66
*145 net67
*146 net68
*147 net69
*148 net70
*149 net71
*150 net53
*151 net72
*152 net73
*153 net74
*154 net75
*155 net76
*156 net77
*157 net78
*158 net79
*159 net80
*160 net81
*161 net54
*162 net82
*163 net83
*164 net84
*165 net85
*166 net86
*167 net87
*168 net88
*169 net89
*170 net90
*171 net91
*172 net55
*173 net92
*174 net93
*175 net94
*176 net95
*177 net96
*178 net97
*179 net98
*180 net99
*181 net100
*182 net101
*183 net56
*184 net102
*185 net103
*186 net104
*187 net105
*188 net106
*189 net107
*190 net108
*191 net109
*192 net110
*193 net111
*194 net57
*195 net112
*196 net113
*197 net114
*198 net115
*199 net58
*200 net59
*201 net60
*202 net61
*203 rstn_i
*204 rstn_o
*205 scan_en_i
*206 scan_i
*207 net116
*208 testmode_i
*209 net117
*210 net118
*211 net119
*214 net120
*215 net121
*216 net131
*217 net132
*218 net133
*219 net134
*220 net135
*221 net136
*222 net137
*223 net138
*224 net139
*225 net140
*226 net122
*227 net141
*228 net142
*229 net143
*230 net144
*231 net145
*232 net146
*233 net147
*234 net148
*235 net149
*236 net150
*237 net123
*238 net151
*239 net152
*240 net124
*241 net125
*242 net126
*243 net127
*244 net128
*245 net129
*246 net130
*247 _000_
*248 _001_
*249 _002_
*250 _003_
*251 _004_
*252 _005_
*253 _006_
*254 clknet_0_clk_i
*255 clknet_1_0__leaf_clk_i
*256 clknet_1_1__leaf_clk_i
*257 i_rst_gen_soc\.s_rst_ff0
*258 i_rst_gen_soc\.s_rst_ff1
*259 i_rst_gen_soc\.s_rst_ff2
*260 i_rst_gen_soc\.s_rst_ff3
*261 i_rst_gen_soc\.s_rst_n
*262 net1
*263 net153
*264 net2
*265 net206
*266 net207
*267 net208
*268 net209
*269 net3
*270 net4
*271 net5
*272 net6
*273 FILLER_0_101
*274 FILLER_0_108
*275 FILLER_0_113
*276 FILLER_0_118
*277 FILLER_0_125
*278 FILLER_0_132
*279 FILLER_0_144
*280 FILLER_0_153
*281 FILLER_0_164
*282 FILLER_0_169
*283 FILLER_0_17
*284 FILLER_0_178
*285 FILLER_0_185
*286 FILLER_0_192
*287 FILLER_0_197
*288 FILLER_0_206
*289 FILLER_0_213
*290 FILLER_0_220
*291 FILLER_0_225
*292 FILLER_0_230
*293 FILLER_0_238
*294 FILLER_0_24
*295 FILLER_0_244
*296 FILLER_0_248
*297 FILLER_0_253
*298 FILLER_0_258
*299 FILLER_0_265
*300 FILLER_0_272
*301 FILLER_0_284
*302 FILLER_0_29
*303 FILLER_0_291
*304 FILLER_0_298
*305 FILLER_0_306
*306 FILLER_0_312
*307 FILLER_0_319
*308 FILLER_0_326
*309 FILLER_0_334
*310 FILLER_0_337
*311 FILLER_0_342
*312 FILLER_0_349
*313 FILLER_0_356
*314 FILLER_0_368
*315 FILLER_0_375
*316 FILLER_0_38
*317 FILLER_0_382
*318 FILLER_0_390
*319 FILLER_0_393
*320 FILLER_0_398
*321 FILLER_0_406
*322 FILLER_0_412
*323 FILLER_0_424
*324 FILLER_0_433
*325 FILLER_0_440
*326 FILLER_0_45
*327 FILLER_0_452
*328 FILLER_0_459
*329 FILLER_0_466
*330 FILLER_0_474
*331 FILLER_0_480
*332 FILLER_0_487
*333 FILLER_0_496
*334 FILLER_0_508
*335 FILLER_0_52
*336 FILLER_0_57
*337 FILLER_0_6
*338 FILLER_0_66
*339 FILLER_0_73
*340 FILLER_0_80
*341 FILLER_0_85
*342 FILLER_0_94
*343 FILLER_10_109
*344 FILLER_10_121
*345 FILLER_10_133
*346 FILLER_10_139
*347 FILLER_10_141
*348 FILLER_10_153
*349 FILLER_10_165
*350 FILLER_10_177
*351 FILLER_10_18
*352 FILLER_10_189
*353 FILLER_10_195
*354 FILLER_10_197
*355 FILLER_10_209
*356 FILLER_10_221
*357 FILLER_10_233
*358 FILLER_10_245
*359 FILLER_10_251
*360 FILLER_10_253
*361 FILLER_10_26
*362 FILLER_10_265
*363 FILLER_10_277
*364 FILLER_10_289
*365 FILLER_10_29
*366 FILLER_10_301
*367 FILLER_10_307
*368 FILLER_10_309
*369 FILLER_10_321
*370 FILLER_10_333
*371 FILLER_10_345
*372 FILLER_10_357
*373 FILLER_10_363
*374 FILLER_10_365
*375 FILLER_10_377
*376 FILLER_10_389
*377 FILLER_10_401
*378 FILLER_10_41
*379 FILLER_10_413
*380 FILLER_10_419
*381 FILLER_10_421
*382 FILLER_10_433
*383 FILLER_10_445
*384 FILLER_10_457
*385 FILLER_10_469
*386 FILLER_10_475
*387 FILLER_10_477
*388 FILLER_10_489
*389 FILLER_10_501
*390 FILLER_10_512
*391 FILLER_10_53
*392 FILLER_10_6
*393 FILLER_10_65
*394 FILLER_10_77
*395 FILLER_10_83
*396 FILLER_10_85
*397 FILLER_10_97
*398 FILLER_11_105
*399 FILLER_11_111
*400 FILLER_11_113
*401 FILLER_11_125
*402 FILLER_11_137
*403 FILLER_11_149
*404 FILLER_11_161
*405 FILLER_11_167
*406 FILLER_11_169
*407 FILLER_11_18
*408 FILLER_11_181
*409 FILLER_11_193
*410 FILLER_11_205
*411 FILLER_11_217
*412 FILLER_11_223
*413 FILLER_11_225
*414 FILLER_11_237
*415 FILLER_11_249
*416 FILLER_11_261
*417 FILLER_11_273
*418 FILLER_11_279
*419 FILLER_11_281
*420 FILLER_11_293
*421 FILLER_11_30
*422 FILLER_11_305
*423 FILLER_11_317
*424 FILLER_11_329
*425 FILLER_11_335
*426 FILLER_11_337
*427 FILLER_11_349
*428 FILLER_11_361
*429 FILLER_11_373
*430 FILLER_11_385
*431 FILLER_11_391
*432 FILLER_11_393
*433 FILLER_11_405
*434 FILLER_11_417
*435 FILLER_11_42
*436 FILLER_11_429
*437 FILLER_11_441
*438 FILLER_11_447
*439 FILLER_11_449
*440 FILLER_11_461
*441 FILLER_11_473
*442 FILLER_11_485
*443 FILLER_11_497
*444 FILLER_11_503
*445 FILLER_11_505
*446 FILLER_11_513
*447 FILLER_11_54
*448 FILLER_11_57
*449 FILLER_11_6
*450 FILLER_11_69
*451 FILLER_11_81
*452 FILLER_11_93
*453 FILLER_12_109
*454 FILLER_12_121
*455 FILLER_12_133
*456 FILLER_12_139
*457 FILLER_12_141
*458 FILLER_12_153
*459 FILLER_12_165
*460 FILLER_12_177
*461 FILLER_12_18
*462 FILLER_12_189
*463 FILLER_12_195
*464 FILLER_12_197
*465 FILLER_12_209
*466 FILLER_12_221
*467 FILLER_12_233
*468 FILLER_12_245
*469 FILLER_12_251
*470 FILLER_12_253
*471 FILLER_12_26
*472 FILLER_12_265
*473 FILLER_12_277
*474 FILLER_12_289
*475 FILLER_12_29
*476 FILLER_12_301
*477 FILLER_12_307
*478 FILLER_12_309
*479 FILLER_12_321
*480 FILLER_12_333
*481 FILLER_12_345
*482 FILLER_12_357
*483 FILLER_12_363
*484 FILLER_12_365
*485 FILLER_12_377
*486 FILLER_12_389
*487 FILLER_12_401
*488 FILLER_12_41
*489 FILLER_12_413
*490 FILLER_12_419
*491 FILLER_12_421
*492 FILLER_12_433
*493 FILLER_12_445
*494 FILLER_12_457
*495 FILLER_12_469
*496 FILLER_12_475
*497 FILLER_12_477
*498 FILLER_12_489
*499 FILLER_12_501
*500 FILLER_12_512
*501 FILLER_12_53
*502 FILLER_12_6
*503 FILLER_12_65
*504 FILLER_12_77
*505 FILLER_12_83
*506 FILLER_12_85
*507 FILLER_12_97
*508 FILLER_13_105
*509 FILLER_13_111
*510 FILLER_13_113
*511 FILLER_13_125
*512 FILLER_13_137
*513 FILLER_13_149
*514 FILLER_13_15
*515 FILLER_13_161
*516 FILLER_13_167
*517 FILLER_13_169
*518 FILLER_13_181
*519 FILLER_13_193
*520 FILLER_13_205
*521 FILLER_13_217
*522 FILLER_13_223
*523 FILLER_13_225
*524 FILLER_13_237
*525 FILLER_13_249
*526 FILLER_13_261
*527 FILLER_13_27
*528 FILLER_13_273
*529 FILLER_13_279
*530 FILLER_13_281
*531 FILLER_13_293
*532 FILLER_13_3
*533 FILLER_13_305
*534 FILLER_13_317
*535 FILLER_13_329
*536 FILLER_13_335
*537 FILLER_13_337
*538 FILLER_13_349
*539 FILLER_13_361
*540 FILLER_13_373
*541 FILLER_13_385
*542 FILLER_13_39
*543 FILLER_13_391
*544 FILLER_13_393
*545 FILLER_13_405
*546 FILLER_13_417
*547 FILLER_13_429
*548 FILLER_13_441
*549 FILLER_13_447
*550 FILLER_13_449
*551 FILLER_13_461
*552 FILLER_13_473
*553 FILLER_13_485
*554 FILLER_13_492
*555 FILLER_13_505
*556 FILLER_13_51
*557 FILLER_13_513
*558 FILLER_13_55
*559 FILLER_13_57
*560 FILLER_13_69
*561 FILLER_13_81
*562 FILLER_13_93
*563 FILLER_14_109
*564 FILLER_14_121
*565 FILLER_14_133
*566 FILLER_14_139
*567 FILLER_14_141
*568 FILLER_14_15
*569 FILLER_14_153
*570 FILLER_14_165
*571 FILLER_14_177
*572 FILLER_14_189
*573 FILLER_14_195
*574 FILLER_14_197
*575 FILLER_14_209
*576 FILLER_14_221
*577 FILLER_14_233
*578 FILLER_14_245
*579 FILLER_14_251
*580 FILLER_14_253
*581 FILLER_14_265
*582 FILLER_14_27
*583 FILLER_14_277
*584 FILLER_14_289
*585 FILLER_14_29
*586 FILLER_14_3
*587 FILLER_14_301
*588 FILLER_14_307
*589 FILLER_14_309
*590 FILLER_14_321
*591 FILLER_14_333
*592 FILLER_14_345
*593 FILLER_14_357
*594 FILLER_14_363
*595 FILLER_14_365
*596 FILLER_14_377
*597 FILLER_14_389
*598 FILLER_14_401
*599 FILLER_14_41
*600 FILLER_14_413
*601 FILLER_14_419
*602 FILLER_14_421
*603 FILLER_14_433
*604 FILLER_14_445
*605 FILLER_14_457
*606 FILLER_14_469
*607 FILLER_14_475
*608 FILLER_14_477
*609 FILLER_14_489
*610 FILLER_14_501
*611 FILLER_14_512
*612 FILLER_14_53
*613 FILLER_14_65
*614 FILLER_14_77
*615 FILLER_14_83
*616 FILLER_14_85
*617 FILLER_14_97
*618 FILLER_15_105
*619 FILLER_15_111
*620 FILLER_15_113
*621 FILLER_15_125
*622 FILLER_15_137
*623 FILLER_15_149
*624 FILLER_15_15
*625 FILLER_15_161
*626 FILLER_15_167
*627 FILLER_15_169
*628 FILLER_15_181
*629 FILLER_15_193
*630 FILLER_15_205
*631 FILLER_15_217
*632 FILLER_15_223
*633 FILLER_15_225
*634 FILLER_15_237
*635 FILLER_15_249
*636 FILLER_15_261
*637 FILLER_15_27
*638 FILLER_15_273
*639 FILLER_15_279
*640 FILLER_15_281
*641 FILLER_15_293
*642 FILLER_15_3
*643 FILLER_15_305
*644 FILLER_15_317
*645 FILLER_15_329
*646 FILLER_15_335
*647 FILLER_15_337
*648 FILLER_15_349
*649 FILLER_15_361
*650 FILLER_15_373
*651 FILLER_15_385
*652 FILLER_15_39
*653 FILLER_15_391
*654 FILLER_15_393
*655 FILLER_15_405
*656 FILLER_15_417
*657 FILLER_15_429
*658 FILLER_15_441
*659 FILLER_15_447
*660 FILLER_15_449
*661 FILLER_15_461
*662 FILLER_15_473
*663 FILLER_15_485
*664 FILLER_15_497
*665 FILLER_15_503
*666 FILLER_15_508
*667 FILLER_15_51
*668 FILLER_15_55
*669 FILLER_15_57
*670 FILLER_15_69
*671 FILLER_15_81
*672 FILLER_15_93
*673 FILLER_16_109
*674 FILLER_16_121
*675 FILLER_16_133
*676 FILLER_16_139
*677 FILLER_16_141
*678 FILLER_16_153
*679 FILLER_16_165
*680 FILLER_16_177
*681 FILLER_16_18
*682 FILLER_16_189
*683 FILLER_16_195
*684 FILLER_16_197
*685 FILLER_16_209
*686 FILLER_16_221
*687 FILLER_16_233
*688 FILLER_16_245
*689 FILLER_16_251
*690 FILLER_16_253
*691 FILLER_16_26
*692 FILLER_16_265
*693 FILLER_16_277
*694 FILLER_16_289
*695 FILLER_16_29
*696 FILLER_16_301
*697 FILLER_16_307
*698 FILLER_16_309
*699 FILLER_16_321
*700 FILLER_16_333
*701 FILLER_16_345
*702 FILLER_16_357
*703 FILLER_16_363
*704 FILLER_16_365
*705 FILLER_16_377
*706 FILLER_16_389
*707 FILLER_16_401
*708 FILLER_16_41
*709 FILLER_16_413
*710 FILLER_16_419
*711 FILLER_16_421
*712 FILLER_16_433
*713 FILLER_16_445
*714 FILLER_16_457
*715 FILLER_16_469
*716 FILLER_16_475
*717 FILLER_16_477
*718 FILLER_16_489
*719 FILLER_16_497
*720 FILLER_16_504
*721 FILLER_16_53
*722 FILLER_16_6
*723 FILLER_16_65
*724 FILLER_16_77
*725 FILLER_16_83
*726 FILLER_16_85
*727 FILLER_16_97
*728 FILLER_17_105
*729 FILLER_17_111
*730 FILLER_17_113
*731 FILLER_17_125
*732 FILLER_17_137
*733 FILLER_17_149
*734 FILLER_17_161
*735 FILLER_17_167
*736 FILLER_17_169
*737 FILLER_17_18
*738 FILLER_17_181
*739 FILLER_17_193
*740 FILLER_17_205
*741 FILLER_17_217
*742 FILLER_17_223
*743 FILLER_17_225
*744 FILLER_17_237
*745 FILLER_17_249
*746 FILLER_17_261
*747 FILLER_17_273
*748 FILLER_17_279
*749 FILLER_17_281
*750 FILLER_17_293
*751 FILLER_17_30
*752 FILLER_17_305
*753 FILLER_17_317
*754 FILLER_17_329
*755 FILLER_17_335
*756 FILLER_17_337
*757 FILLER_17_349
*758 FILLER_17_361
*759 FILLER_17_373
*760 FILLER_17_385
*761 FILLER_17_391
*762 FILLER_17_393
*763 FILLER_17_405
*764 FILLER_17_417
*765 FILLER_17_42
*766 FILLER_17_429
*767 FILLER_17_441
*768 FILLER_17_447
*769 FILLER_17_449
*770 FILLER_17_461
*771 FILLER_17_473
*772 FILLER_17_485
*773 FILLER_17_497
*774 FILLER_17_503
*775 FILLER_17_505
*776 FILLER_17_512
*777 FILLER_17_54
*778 FILLER_17_57
*779 FILLER_17_6
*780 FILLER_17_69
*781 FILLER_17_81
*782 FILLER_17_93
*783 FILLER_18_109
*784 FILLER_18_121
*785 FILLER_18_133
*786 FILLER_18_139
*787 FILLER_18_141
*788 FILLER_18_15
*789 FILLER_18_153
*790 FILLER_18_165
*791 FILLER_18_177
*792 FILLER_18_189
*793 FILLER_18_195
*794 FILLER_18_197
*795 FILLER_18_209
*796 FILLER_18_221
*797 FILLER_18_233
*798 FILLER_18_245
*799 FILLER_18_251
*800 FILLER_18_253
*801 FILLER_18_265
*802 FILLER_18_27
*803 FILLER_18_277
*804 FILLER_18_289
*805 FILLER_18_29
*806 FILLER_18_3
*807 FILLER_18_301
*808 FILLER_18_307
*809 FILLER_18_309
*810 FILLER_18_321
*811 FILLER_18_333
*812 FILLER_18_345
*813 FILLER_18_357
*814 FILLER_18_363
*815 FILLER_18_365
*816 FILLER_18_377
*817 FILLER_18_389
*818 FILLER_18_401
*819 FILLER_18_41
*820 FILLER_18_413
*821 FILLER_18_419
*822 FILLER_18_421
*823 FILLER_18_433
*824 FILLER_18_445
*825 FILLER_18_457
*826 FILLER_18_469
*827 FILLER_18_475
*828 FILLER_18_477
*829 FILLER_18_489
*830 FILLER_18_501
*831 FILLER_18_512
*832 FILLER_18_53
*833 FILLER_18_65
*834 FILLER_18_77
*835 FILLER_18_83
*836 FILLER_18_85
*837 FILLER_18_97
*838 FILLER_19_105
*839 FILLER_19_111
*840 FILLER_19_113
*841 FILLER_19_125
*842 FILLER_19_137
*843 FILLER_19_149
*844 FILLER_19_161
*845 FILLER_19_167
*846 FILLER_19_169
*847 FILLER_19_18
*848 FILLER_19_181
*849 FILLER_19_193
*850 FILLER_19_205
*851 FILLER_19_217
*852 FILLER_19_223
*853 FILLER_19_225
*854 FILLER_19_237
*855 FILLER_19_249
*856 FILLER_19_261
*857 FILLER_19_273
*858 FILLER_19_279
*859 FILLER_19_281
*860 FILLER_19_293
*861 FILLER_19_30
*862 FILLER_19_319
*863 FILLER_19_331
*864 FILLER_19_335
*865 FILLER_19_337
*866 FILLER_19_349
*867 FILLER_19_375
*868 FILLER_19_387
*869 FILLER_19_391
*870 FILLER_19_393
*871 FILLER_19_405
*872 FILLER_19_417
*873 FILLER_19_42
*874 FILLER_19_429
*875 FILLER_19_435
*876 FILLER_19_447
*877 FILLER_19_449
*878 FILLER_19_461
*879 FILLER_19_473
*880 FILLER_19_480
*881 FILLER_19_487
*882 FILLER_19_494
*883 FILLER_19_502
*884 FILLER_19_508
*885 FILLER_19_54
*886 FILLER_19_57
*887 FILLER_19_6
*888 FILLER_19_69
*889 FILLER_19_81
*890 FILLER_19_93
*891 FILLER_1_102
*892 FILLER_1_110
*893 FILLER_1_113
*894 FILLER_1_125
*895 FILLER_1_13
*896 FILLER_1_137
*897 FILLER_1_149
*898 FILLER_1_161
*899 FILLER_1_167
*900 FILLER_1_169
*901 FILLER_1_174
*902 FILLER_1_186
*903 FILLER_1_198
*904 FILLER_1_20
*905 FILLER_1_202
*906 FILLER_1_214
*907 FILLER_1_222
*908 FILLER_1_225
*909 FILLER_1_237
*910 FILLER_1_244
*911 FILLER_1_256
*912 FILLER_1_268
*913 FILLER_1_28
*914 FILLER_1_281
*915 FILLER_1_293
*916 FILLER_1_300
*917 FILLER_1_312
*918 FILLER_1_324
*919 FILLER_1_328
*920 FILLER_1_337
*921 FILLER_1_34
*922 FILLER_1_349
*923 FILLER_1_361
*924 FILLER_1_373
*925 FILLER_1_384
*926 FILLER_1_393
*927 FILLER_1_405
*928 FILLER_1_417
*929 FILLER_1_429
*930 FILLER_1_441
*931 FILLER_1_447
*932 FILLER_1_449
*933 FILLER_1_46
*934 FILLER_1_461
*935 FILLER_1_468
*936 FILLER_1_480
*937 FILLER_1_486
*938 FILLER_1_493
*939 FILLER_1_500
*940 FILLER_1_505
*941 FILLER_1_510
*942 FILLER_1_54
*943 FILLER_1_57
*944 FILLER_1_6
*945 FILLER_1_69
*946 FILLER_1_81
*947 FILLER_1_90
*948 FILLER_20_109
*949 FILLER_20_121
*950 FILLER_20_133
*951 FILLER_20_139
*952 FILLER_20_141
*953 FILLER_20_15
*954 FILLER_20_153
*955 FILLER_20_165
*956 FILLER_20_177
*957 FILLER_20_189
*958 FILLER_20_195
*959 FILLER_20_197
*960 FILLER_20_209
*961 FILLER_20_221
*962 FILLER_20_229
*963 FILLER_20_235
*964 FILLER_20_247
*965 FILLER_20_251
*966 FILLER_20_253
*967 FILLER_20_265
*968 FILLER_20_27
*969 FILLER_20_277
*970 FILLER_20_29
*971 FILLER_20_293
*972 FILLER_20_3
*973 FILLER_20_305
*974 FILLER_20_309
*975 FILLER_20_321
*976 FILLER_20_333
*977 FILLER_20_339
*978 FILLER_20_348
*979 FILLER_20_360
*980 FILLER_20_365
*981 FILLER_20_387
*982 FILLER_20_399
*983 FILLER_20_41
*984 FILLER_20_411
*985 FILLER_20_419
*986 FILLER_20_421
*987 FILLER_20_433
*988 FILLER_20_445
*989 FILLER_20_457
*990 FILLER_20_469
*991 FILLER_20_475
*992 FILLER_20_477
*993 FILLER_20_489
*994 FILLER_20_501
*995 FILLER_20_512
*996 FILLER_20_53
*997 FILLER_20_65
*998 FILLER_20_77
*999 FILLER_20_83
*1000 FILLER_20_85
*1001 FILLER_20_97
*1002 FILLER_21_105
*1003 FILLER_21_111
*1004 FILLER_21_113
*1005 FILLER_21_125
*1006 FILLER_21_137
*1007 FILLER_21_149
*1008 FILLER_21_161
*1009 FILLER_21_167
*1010 FILLER_21_169
*1011 FILLER_21_18
*1012 FILLER_21_181
*1013 FILLER_21_193
*1014 FILLER_21_205
*1015 FILLER_21_217
*1016 FILLER_21_223
*1017 FILLER_21_225
*1018 FILLER_21_237
*1019 FILLER_21_249
*1020 FILLER_21_255
*1021 FILLER_21_276
*1022 FILLER_21_281
*1023 FILLER_21_289
*1024 FILLER_21_30
*1025 FILLER_21_311
*1026 FILLER_21_323
*1027 FILLER_21_335
*1028 FILLER_21_337
*1029 FILLER_21_345
*1030 FILLER_21_367
*1031 FILLER_21_379
*1032 FILLER_21_391
*1033 FILLER_21_393
*1034 FILLER_21_405
*1035 FILLER_21_417
*1036 FILLER_21_42
*1037 FILLER_21_429
*1038 FILLER_21_441
*1039 FILLER_21_447
*1040 FILLER_21_449
*1041 FILLER_21_457
*1042 FILLER_21_478
*1043 FILLER_21_490
*1044 FILLER_21_502
*1045 FILLER_21_505
*1046 FILLER_21_512
*1047 FILLER_21_54
*1048 FILLER_21_57
*1049 FILLER_21_6
*1050 FILLER_21_69
*1051 FILLER_21_81
*1052 FILLER_21_93
*1053 FILLER_22_109
*1054 FILLER_22_121
*1055 FILLER_22_133
*1056 FILLER_22_139
*1057 FILLER_22_141
*1058 FILLER_22_153
*1059 FILLER_22_165
*1060 FILLER_22_177
*1061 FILLER_22_18
*1062 FILLER_22_189
*1063 FILLER_22_195
*1064 FILLER_22_197
*1065 FILLER_22_209
*1066 FILLER_22_221
*1067 FILLER_22_233
*1068 FILLER_22_245
*1069 FILLER_22_251
*1070 FILLER_22_253
*1071 FILLER_22_26
*1072 FILLER_22_264
*1073 FILLER_22_276
*1074 FILLER_22_288
*1075 FILLER_22_29
*1076 FILLER_22_300
*1077 FILLER_22_309
*1078 FILLER_22_321
*1079 FILLER_22_333
*1080 FILLER_22_345
*1081 FILLER_22_357
*1082 FILLER_22_363
*1083 FILLER_22_365
*1084 FILLER_22_377
*1085 FILLER_22_389
*1086 FILLER_22_401
*1087 FILLER_22_41
*1088 FILLER_22_413
*1089 FILLER_22_419
*1090 FILLER_22_441
*1091 FILLER_22_449
*1092 FILLER_22_459
*1093 FILLER_22_471
*1094 FILLER_22_475
*1095 FILLER_22_477
*1096 FILLER_22_489
*1097 FILLER_22_501
*1098 FILLER_22_512
*1099 FILLER_22_53
*1100 FILLER_22_6
*1101 FILLER_22_65
*1102 FILLER_22_77
*1103 FILLER_22_83
*1104 FILLER_22_85
*1105 FILLER_22_97
*1106 FILLER_23_105
*1107 FILLER_23_111
*1108 FILLER_23_113
*1109 FILLER_23_125
*1110 FILLER_23_137
*1111 FILLER_23_149
*1112 FILLER_23_15
*1113 FILLER_23_161
*1114 FILLER_23_167
*1115 FILLER_23_169
*1116 FILLER_23_181
*1117 FILLER_23_193
*1118 FILLER_23_205
*1119 FILLER_23_217
*1120 FILLER_23_223
*1121 FILLER_23_225
*1122 FILLER_23_233
*1123 FILLER_23_238
*1124 FILLER_23_250
*1125 FILLER_23_262
*1126 FILLER_23_27
*1127 FILLER_23_274
*1128 FILLER_23_281
*1129 FILLER_23_293
*1130 FILLER_23_3
*1131 FILLER_23_305
*1132 FILLER_23_317
*1133 FILLER_23_329
*1134 FILLER_23_335
*1135 FILLER_23_337
*1136 FILLER_23_349
*1137 FILLER_23_361
*1138 FILLER_23_373
*1139 FILLER_23_385
*1140 FILLER_23_39
*1141 FILLER_23_391
*1142 FILLER_23_393
*1143 FILLER_23_405
*1144 FILLER_23_417
*1145 FILLER_23_429
*1146 FILLER_23_441
*1147 FILLER_23_447
*1148 FILLER_23_449
*1149 FILLER_23_461
*1150 FILLER_23_473
*1151 FILLER_23_485
*1152 FILLER_23_497
*1153 FILLER_23_503
*1154 FILLER_23_505
*1155 FILLER_23_51
*1156 FILLER_23_513
*1157 FILLER_23_55
*1158 FILLER_23_57
*1159 FILLER_23_69
*1160 FILLER_23_81
*1161 FILLER_23_93
*1162 FILLER_24_109
*1163 FILLER_24_121
*1164 FILLER_24_133
*1165 FILLER_24_139
*1166 FILLER_24_141
*1167 FILLER_24_153
*1168 FILLER_24_165
*1169 FILLER_24_177
*1170 FILLER_24_18
*1171 FILLER_24_189
*1172 FILLER_24_195
*1173 FILLER_24_197
*1174 FILLER_24_209
*1175 FILLER_24_221
*1176 FILLER_24_233
*1177 FILLER_24_245
*1178 FILLER_24_251
*1179 FILLER_24_253
*1180 FILLER_24_26
*1181 FILLER_24_265
*1182 FILLER_24_277
*1183 FILLER_24_289
*1184 FILLER_24_29
*1185 FILLER_24_301
*1186 FILLER_24_307
*1187 FILLER_24_309
*1188 FILLER_24_321
*1189 FILLER_24_333
*1190 FILLER_24_345
*1191 FILLER_24_357
*1192 FILLER_24_363
*1193 FILLER_24_365
*1194 FILLER_24_377
*1195 FILLER_24_389
*1196 FILLER_24_401
*1197 FILLER_24_41
*1198 FILLER_24_413
*1199 FILLER_24_419
*1200 FILLER_24_421
*1201 FILLER_24_433
*1202 FILLER_24_445
*1203 FILLER_24_457
*1204 FILLER_24_469
*1205 FILLER_24_475
*1206 FILLER_24_477
*1207 FILLER_24_489
*1208 FILLER_24_501
*1209 FILLER_24_513
*1210 FILLER_24_53
*1211 FILLER_24_6
*1212 FILLER_24_65
*1213 FILLER_24_77
*1214 FILLER_24_83
*1215 FILLER_24_85
*1216 FILLER_24_97
*1217 FILLER_25_105
*1218 FILLER_25_111
*1219 FILLER_25_113
*1220 FILLER_25_125
*1221 FILLER_25_137
*1222 FILLER_25_149
*1223 FILLER_25_161
*1224 FILLER_25_167
*1225 FILLER_25_169
*1226 FILLER_25_18
*1227 FILLER_25_181
*1228 FILLER_25_193
*1229 FILLER_25_205
*1230 FILLER_25_217
*1231 FILLER_25_223
*1232 FILLER_25_225
*1233 FILLER_25_237
*1234 FILLER_25_249
*1235 FILLER_25_261
*1236 FILLER_25_273
*1237 FILLER_25_279
*1238 FILLER_25_281
*1239 FILLER_25_293
*1240 FILLER_25_30
*1241 FILLER_25_305
*1242 FILLER_25_317
*1243 FILLER_25_329
*1244 FILLER_25_335
*1245 FILLER_25_337
*1246 FILLER_25_349
*1247 FILLER_25_361
*1248 FILLER_25_373
*1249 FILLER_25_385
*1250 FILLER_25_391
*1251 FILLER_25_393
*1252 FILLER_25_405
*1253 FILLER_25_417
*1254 FILLER_25_42
*1255 FILLER_25_429
*1256 FILLER_25_441
*1257 FILLER_25_447
*1258 FILLER_25_449
*1259 FILLER_25_461
*1260 FILLER_25_473
*1261 FILLER_25_485
*1262 FILLER_25_497
*1263 FILLER_25_503
*1264 FILLER_25_505
*1265 FILLER_25_512
*1266 FILLER_25_54
*1267 FILLER_25_57
*1268 FILLER_25_6
*1269 FILLER_25_69
*1270 FILLER_25_81
*1271 FILLER_25_93
*1272 FILLER_26_109
*1273 FILLER_26_121
*1274 FILLER_26_133
*1275 FILLER_26_139
*1276 FILLER_26_141
*1277 FILLER_26_15
*1278 FILLER_26_153
*1279 FILLER_26_165
*1280 FILLER_26_177
*1281 FILLER_26_189
*1282 FILLER_26_195
*1283 FILLER_26_197
*1284 FILLER_26_209
*1285 FILLER_26_221
*1286 FILLER_26_233
*1287 FILLER_26_245
*1288 FILLER_26_251
*1289 FILLER_26_253
*1290 FILLER_26_265
*1291 FILLER_26_27
*1292 FILLER_26_277
*1293 FILLER_26_289
*1294 FILLER_26_29
*1295 FILLER_26_3
*1296 FILLER_26_301
*1297 FILLER_26_307
*1298 FILLER_26_309
*1299 FILLER_26_321
*1300 FILLER_26_333
*1301 FILLER_26_345
*1302 FILLER_26_357
*1303 FILLER_26_363
*1304 FILLER_26_365
*1305 FILLER_26_377
*1306 FILLER_26_389
*1307 FILLER_26_401
*1308 FILLER_26_41
*1309 FILLER_26_413
*1310 FILLER_26_419
*1311 FILLER_26_421
*1312 FILLER_26_433
*1313 FILLER_26_445
*1314 FILLER_26_457
*1315 FILLER_26_469
*1316 FILLER_26_475
*1317 FILLER_26_477
*1318 FILLER_26_489
*1319 FILLER_26_501
*1320 FILLER_26_512
*1321 FILLER_26_53
*1322 FILLER_26_65
*1323 FILLER_26_77
*1324 FILLER_26_83
*1325 FILLER_26_85
*1326 FILLER_26_97
*1327 FILLER_27_105
*1328 FILLER_27_111
*1329 FILLER_27_113
*1330 FILLER_27_125
*1331 FILLER_27_137
*1332 FILLER_27_149
*1333 FILLER_27_15
*1334 FILLER_27_161
*1335 FILLER_27_167
*1336 FILLER_27_169
*1337 FILLER_27_181
*1338 FILLER_27_193
*1339 FILLER_27_205
*1340 FILLER_27_217
*1341 FILLER_27_223
*1342 FILLER_27_225
*1343 FILLER_27_237
*1344 FILLER_27_249
*1345 FILLER_27_261
*1346 FILLER_27_27
*1347 FILLER_27_273
*1348 FILLER_27_279
*1349 FILLER_27_281
*1350 FILLER_27_293
*1351 FILLER_27_3
*1352 FILLER_27_305
*1353 FILLER_27_317
*1354 FILLER_27_329
*1355 FILLER_27_335
*1356 FILLER_27_337
*1357 FILLER_27_349
*1358 FILLER_27_361
*1359 FILLER_27_373
*1360 FILLER_27_385
*1361 FILLER_27_39
*1362 FILLER_27_391
*1363 FILLER_27_393
*1364 FILLER_27_405
*1365 FILLER_27_417
*1366 FILLER_27_429
*1367 FILLER_27_441
*1368 FILLER_27_447
*1369 FILLER_27_449
*1370 FILLER_27_461
*1371 FILLER_27_473
*1372 FILLER_27_485
*1373 FILLER_27_497
*1374 FILLER_27_503
*1375 FILLER_27_505
*1376 FILLER_27_51
*1377 FILLER_27_512
*1378 FILLER_27_55
*1379 FILLER_27_57
*1380 FILLER_27_69
*1381 FILLER_27_81
*1382 FILLER_27_93
*1383 FILLER_28_109
*1384 FILLER_28_121
*1385 FILLER_28_133
*1386 FILLER_28_139
*1387 FILLER_28_141
*1388 FILLER_28_15
*1389 FILLER_28_153
*1390 FILLER_28_165
*1391 FILLER_28_177
*1392 FILLER_28_189
*1393 FILLER_28_195
*1394 FILLER_28_197
*1395 FILLER_28_209
*1396 FILLER_28_221
*1397 FILLER_28_233
*1398 FILLER_28_245
*1399 FILLER_28_251
*1400 FILLER_28_253
*1401 FILLER_28_265
*1402 FILLER_28_27
*1403 FILLER_28_277
*1404 FILLER_28_289
*1405 FILLER_28_29
*1406 FILLER_28_3
*1407 FILLER_28_301
*1408 FILLER_28_307
*1409 FILLER_28_309
*1410 FILLER_28_321
*1411 FILLER_28_333
*1412 FILLER_28_345
*1413 FILLER_28_357
*1414 FILLER_28_363
*1415 FILLER_28_365
*1416 FILLER_28_377
*1417 FILLER_28_389
*1418 FILLER_28_401
*1419 FILLER_28_41
*1420 FILLER_28_413
*1421 FILLER_28_419
*1422 FILLER_28_421
*1423 FILLER_28_433
*1424 FILLER_28_445
*1425 FILLER_28_457
*1426 FILLER_28_469
*1427 FILLER_28_475
*1428 FILLER_28_477
*1429 FILLER_28_489
*1430 FILLER_28_501
*1431 FILLER_28_513
*1432 FILLER_28_53
*1433 FILLER_28_65
*1434 FILLER_28_77
*1435 FILLER_28_83
*1436 FILLER_28_85
*1437 FILLER_28_97
*1438 FILLER_29_105
*1439 FILLER_29_111
*1440 FILLER_29_113
*1441 FILLER_29_125
*1442 FILLER_29_137
*1443 FILLER_29_149
*1444 FILLER_29_15
*1445 FILLER_29_161
*1446 FILLER_29_167
*1447 FILLER_29_169
*1448 FILLER_29_181
*1449 FILLER_29_193
*1450 FILLER_29_205
*1451 FILLER_29_217
*1452 FILLER_29_223
*1453 FILLER_29_225
*1454 FILLER_29_237
*1455 FILLER_29_249
*1456 FILLER_29_261
*1457 FILLER_29_27
*1458 FILLER_29_273
*1459 FILLER_29_279
*1460 FILLER_29_281
*1461 FILLER_29_293
*1462 FILLER_29_3
*1463 FILLER_29_305
*1464 FILLER_29_317
*1465 FILLER_29_329
*1466 FILLER_29_335
*1467 FILLER_29_337
*1468 FILLER_29_349
*1469 FILLER_29_361
*1470 FILLER_29_373
*1471 FILLER_29_385
*1472 FILLER_29_39
*1473 FILLER_29_391
*1474 FILLER_29_393
*1475 FILLER_29_405
*1476 FILLER_29_417
*1477 FILLER_29_429
*1478 FILLER_29_441
*1479 FILLER_29_447
*1480 FILLER_29_449
*1481 FILLER_29_461
*1482 FILLER_29_473
*1483 FILLER_29_485
*1484 FILLER_29_497
*1485 FILLER_29_503
*1486 FILLER_29_505
*1487 FILLER_29_51
*1488 FILLER_29_512
*1489 FILLER_29_55
*1490 FILLER_29_57
*1491 FILLER_29_69
*1492 FILLER_29_81
*1493 FILLER_29_93
*1494 FILLER_2_109
*1495 FILLER_2_121
*1496 FILLER_2_13
*1497 FILLER_2_133
*1498 FILLER_2_139
*1499 FILLER_2_141
*1500 FILLER_2_153
*1501 FILLER_2_165
*1502 FILLER_2_177
*1503 FILLER_2_189
*1504 FILLER_2_195
*1505 FILLER_2_197
*1506 FILLER_2_20
*1507 FILLER_2_209
*1508 FILLER_2_221
*1509 FILLER_2_233
*1510 FILLER_2_245
*1511 FILLER_2_251
*1512 FILLER_2_253
*1513 FILLER_2_265
*1514 FILLER_2_277
*1515 FILLER_2_289
*1516 FILLER_2_29
*1517 FILLER_2_301
*1518 FILLER_2_307
*1519 FILLER_2_309
*1520 FILLER_2_321
*1521 FILLER_2_333
*1522 FILLER_2_345
*1523 FILLER_2_357
*1524 FILLER_2_363
*1525 FILLER_2_365
*1526 FILLER_2_377
*1527 FILLER_2_389
*1528 FILLER_2_401
*1529 FILLER_2_41
*1530 FILLER_2_413
*1531 FILLER_2_419
*1532 FILLER_2_421
*1533 FILLER_2_433
*1534 FILLER_2_445
*1535 FILLER_2_457
*1536 FILLER_2_469
*1537 FILLER_2_475
*1538 FILLER_2_477
*1539 FILLER_2_489
*1540 FILLER_2_498
*1541 FILLER_2_505
*1542 FILLER_2_512
*1543 FILLER_2_53
*1544 FILLER_2_6
*1545 FILLER_2_65
*1546 FILLER_2_77
*1547 FILLER_2_83
*1548 FILLER_2_85
*1549 FILLER_2_97
*1550 FILLER_30_109
*1551 FILLER_30_121
*1552 FILLER_30_133
*1553 FILLER_30_139
*1554 FILLER_30_141
*1555 FILLER_30_153
*1556 FILLER_30_165
*1557 FILLER_30_177
*1558 FILLER_30_18
*1559 FILLER_30_189
*1560 FILLER_30_195
*1561 FILLER_30_197
*1562 FILLER_30_209
*1563 FILLER_30_221
*1564 FILLER_30_233
*1565 FILLER_30_245
*1566 FILLER_30_251
*1567 FILLER_30_253
*1568 FILLER_30_26
*1569 FILLER_30_265
*1570 FILLER_30_277
*1571 FILLER_30_289
*1572 FILLER_30_29
*1573 FILLER_30_301
*1574 FILLER_30_307
*1575 FILLER_30_309
*1576 FILLER_30_321
*1577 FILLER_30_333
*1578 FILLER_30_345
*1579 FILLER_30_357
*1580 FILLER_30_363
*1581 FILLER_30_365
*1582 FILLER_30_377
*1583 FILLER_30_389
*1584 FILLER_30_401
*1585 FILLER_30_41
*1586 FILLER_30_413
*1587 FILLER_30_419
*1588 FILLER_30_421
*1589 FILLER_30_433
*1590 FILLER_30_445
*1591 FILLER_30_457
*1592 FILLER_30_469
*1593 FILLER_30_475
*1594 FILLER_30_477
*1595 FILLER_30_489
*1596 FILLER_30_501
*1597 FILLER_30_512
*1598 FILLER_30_53
*1599 FILLER_30_6
*1600 FILLER_30_65
*1601 FILLER_30_77
*1602 FILLER_30_83
*1603 FILLER_30_85
*1604 FILLER_30_97
*1605 FILLER_31_105
*1606 FILLER_31_111
*1607 FILLER_31_113
*1608 FILLER_31_125
*1609 FILLER_31_137
*1610 FILLER_31_149
*1611 FILLER_31_161
*1612 FILLER_31_167
*1613 FILLER_31_169
*1614 FILLER_31_18
*1615 FILLER_31_181
*1616 FILLER_31_193
*1617 FILLER_31_205
*1618 FILLER_31_217
*1619 FILLER_31_223
*1620 FILLER_31_225
*1621 FILLER_31_237
*1622 FILLER_31_249
*1623 FILLER_31_261
*1624 FILLER_31_273
*1625 FILLER_31_279
*1626 FILLER_31_281
*1627 FILLER_31_293
*1628 FILLER_31_30
*1629 FILLER_31_305
*1630 FILLER_31_317
*1631 FILLER_31_329
*1632 FILLER_31_335
*1633 FILLER_31_337
*1634 FILLER_31_349
*1635 FILLER_31_361
*1636 FILLER_31_373
*1637 FILLER_31_385
*1638 FILLER_31_391
*1639 FILLER_31_393
*1640 FILLER_31_405
*1641 FILLER_31_417
*1642 FILLER_31_42
*1643 FILLER_31_429
*1644 FILLER_31_441
*1645 FILLER_31_447