*SPEF "ieee 1481-1999"
*DESIGN "user_project_wrapper"
*DATE "11:11:11 Fri 11 11, 1111"
*VENDOR "OpenRCX"
*PROGRAM "Parallel Extraction"
*VERSION "1.0"
*DESIGN_FLOW "NAME_SCOPE LOCAL" "PIN_CAP NONE"
*DIVIDER /
*DELIMITER :
*BUS_DELIMITER []
*T_UNIT 1 NS
*C_UNIT 1 PF
*R_UNIT 1 OHM
*L_UNIT 1 HENRY

*NAME_MAP
*1 analog_io[0]
*2 analog_io[10]
*3 analog_io[11]
*4 analog_io[12]
*5 analog_io[13]
*6 analog_io[14]
*7 analog_io[15]
*8 analog_io[16]
*9 analog_io[17]
*10 analog_io[18]
*11 analog_io[19]
*12 analog_io[1]
*13 analog_io[20]
*14 analog_io[21]
*15 analog_io[22]
*16 analog_io[23]
*17 analog_io[24]
*18 analog_io[25]
*19 analog_io[26]
*20 analog_io[27]
*21 analog_io[28]
*22 analog_io[2]
*23 analog_io[3]
*24 analog_io[4]
*25 analog_io[5]
*26 analog_io[6]
*27 analog_io[7]
*28 analog_io[8]
*29 analog_io[9]
*30 io_in[0]
*31 io_in[10]
*32 io_in[11]
*33 io_in[12]
*34 io_in[13]
*35 io_in[14]
*36 io_in[15]
*37 io_in[16]
*38 io_in[17]
*39 io_in[18]
*40 io_in[19]
*41 io_in[1]
*42 io_in[20]
*43 io_in[21]
*44 io_in[22]
*45 io_in[23]
*46 io_in[24]
*47 io_in[25]
*48 io_in[26]
*49 io_in[27]
*50 io_in[28]
*51 io_in[29]
*52 io_in[2]
*53 io_in[30]
*54 io_in[31]
*55 io_in[32]
*56 io_in[33]
*57 io_in[34]
*58 io_in[35]
*59 io_in[36]
*60 io_in[37]
*61 io_in[3]
*62 io_in[4]
*63 io_in[5]
*64 io_in[6]
*65 io_in[7]
*66 io_in[8]
*67 io_in[9]
*68 io_oeb[0]
*69 io_oeb[10]
*70 io_oeb[11]
*71 io_oeb[12]
*72 io_oeb[13]
*73 io_oeb[14]
*74 io_oeb[15]
*75 io_oeb[16]
*76 io_oeb[17]
*77 io_oeb[18]
*78 io_oeb[19]
*79 io_oeb[1]
*80 io_oeb[20]
*81 io_oeb[21]
*82 io_oeb[22]
*83 io_oeb[23]
*84 io_oeb[24]
*85 io_oeb[25]
*86 io_oeb[26]
*87 io_oeb[27]
*88 io_oeb[28]
*89 io_oeb[29]
*90 io_oeb[2]
*91 io_oeb[30]
*92 io_oeb[31]
*93 io_oeb[32]
*94 io_oeb[33]
*95 io_oeb[34]
*96 io_oeb[35]
*97 io_oeb[36]
*98 io_oeb[37]
*99 io_oeb[3]
*100 io_oeb[4]
*101 io_oeb[5]
*102 io_oeb[6]
*103 io_oeb[7]
*104 io_oeb[8]
*105 io_oeb[9]
*106 io_out[0]
*107 io_out[10]
*108 io_out[11]
*109 io_out[12]
*110 io_out[13]
*111 io_out[14]
*112 io_out[15]
*113 io_out[16]
*114 io_out[17]
*115 io_out[18]
*116 io_out[19]
*117 io_out[1]
*118 io_out[20]
*119 io_out[21]
*120 io_out[22]
*121 io_out[23]
*122 io_out[24]
*123 io_out[25]
*124 io_out[26]
*125 io_out[27]
*126 io_out[28]
*127 io_out[29]
*128 io_out[2]
*129 io_out[30]
*130 io_out[31]
*131 io_out[32]
*132 io_out[33]
*133 io_out[34]
*134 io_out[35]
*135 io_out[36]
*136 io_out[37]
*137 io_out[3]
*138 io_out[4]
*139 io_out[5]
*140 io_out[6]
*141 io_out[7]
*142 io_out[8]
*143 io_out[9]
*144 la_data_in[0]
*145 la_data_in[100]
*146 la_data_in[101]
*147 la_data_in[102]
*148 la_data_in[103]
*149 la_data_in[104]
*150 la_data_in[105]
*151 la_data_in[106]
*152 la_data_in[107]
*153 la_data_in[108]
*154 la_data_in[109]
*155 la_data_in[10]
*156 la_data_in[110]
*157 la_data_in[111]
*158 la_data_in[112]
*159 la_data_in[113]
*160 la_data_in[114]
*161 la_data_in[115]
*162 la_data_in[116]
*163 la_data_in[117]
*164 la_data_in[118]
*165 la_data_in[119]
*166 la_data_in[11]
*167 la_data_in[120]
*168 la_data_in[121]
*169 la_data_in[122]
*170 la_data_in[123]
*171 la_data_in[124]
*172 la_data_in[125]
*173 la_data_in[126]
*174 la_data_in[127]
*175 la_data_in[12]
*176 la_data_in[13]
*177 la_data_in[14]
*178 la_data_in[15]
*179 la_data_in[16]
*180 la_data_in[17]
*181 la_data_in[18]
*182 la_data_in[19]
*183 la_data_in[1]
*184 la_data_in[20]
*185 la_data_in[21]
*186 la_data_in[22]
*187 la_data_in[23]
*188 la_data_in[24]
*189 la_data_in[25]
*190 la_data_in[26]
*191 la_data_in[27]
*192 la_data_in[28]
*193 la_data_in[29]
*194 la_data_in[2]
*195 la_data_in[30]
*196 la_data_in[31]
*197 la_data_in[32]
*198 la_data_in[33]
*199 la_data_in[34]
*200 la_data_in[35]
*201 la_data_in[36]
*202 la_data_in[37]
*203 la_data_in[38]
*204 la_data_in[39]
*205 la_data_in[3]
*206 la_data_in[40]
*207 la_data_in[41]
*208 la_data_in[42]
*209 la_data_in[43]
*210 la_data_in[44]
*211 la_data_in[45]
*212 la_data_in[46]
*213 la_data_in[47]
*214 la_data_in[48]
*215 la_data_in[49]
*216 la_data_in[4]
*217 la_data_in[50]
*218 la_data_in[51]
*219 la_data_in[52]
*220 la_data_in[53]
*221 la_data_in[54]
*222 la_data_in[55]
*223 la_data_in[56]
*224 la_data_in[57]
*225 la_data_in[58]
*226 la_data_in[59]
*227 la_data_in[5]
*228 la_data_in[60]
*229 la_data_in[61]
*230 la_data_in[62]
*231 la_data_in[63]
*232 la_data_in[64]
*233 la_data_in[65]
*234 la_data_in[66]
*235 la_data_in[67]
*236 la_data_in[68]
*237 la_data_in[69]
*238 la_data_in[6]
*239 la_data_in[70]
*240 la_data_in[71]
*241 la_data_in[72]
*242 la_data_in[73]
*243 la_data_in[74]
*244 la_data_in[75]
*245 la_data_in[76]
*246 la_data_in[77]
*247 la_data_in[78]
*248 la_data_in[79]
*249 la_data_in[7]
*250 la_data_in[80]
*251 la_data_in[81]
*252 la_data_in[82]
*253 la_data_in[83]
*254 la_data_in[84]
*255 la_data_in[85]
*256 la_data_in[86]
*257 la_data_in[87]
*258 la_data_in[88]
*259 la_data_in[89]
*260 la_data_in[8]
*261 la_data_in[90]
*262 la_data_in[91]
*263 la_data_in[92]
*264 la_data_in[93]
*265 la_data_in[94]
*266 la_data_in[95]
*267 la_data_in[96]
*268 la_data_in[97]
*269 la_data_in[98]
*270 la_data_in[99]
*271 la_data_in[9]
*272 la_data_out[0]
*273 la_data_out[100]
*274 la_data_out[101]
*275 la_data_out[102]
*276 la_data_out[103]
*277 la_data_out[104]
*278 la_data_out[105]
*279 la_data_out[106]
*280 la_data_out[107]
*281 la_data_out[108]
*282 la_data_out[109]
*283 la_data_out[10]
*284 la_data_out[110]
*285 la_data_out[111]
*286 la_data_out[112]
*287 la_data_out[113]
*288 la_data_out[114]
*289 la_data_out[115]
*290 la_data_out[116]
*291 la_data_out[117]
*292 la_data_out[118]
*293 la_data_out[119]
*294 la_data_out[11]
*295 la_data_out[120]
*296 la_data_out[121]
*297 la_data_out[122]
*298 la_data_out[123]
*299 la_data_out[124]
*300 la_data_out[125]
*301 la_data_out[126]
*302 la_data_out[127]
*303 la_data_out[12]
*304 la_data_out[13]
*305 la_data_out[14]
*306 la_data_out[15]
*307 la_data_out[16]
*308 la_data_out[17]
*309 la_data_out[18]
*310 la_data_out[19]
*311 la_data_out[1]
*312 la_data_out[20]
*313 la_data_out[21]
*314 la_data_out[22]
*315 la_data_out[23]
*316 la_data_out[24]
*317 la_data_out[25]
*318 la_data_out[26]
*319 la_data_out[27]
*320 la_data_out[28]
*321 la_data_out[29]
*322 la_data_out[2]
*323 la_data_out[30]
*324 la_data_out[31]
*325 la_data_out[32]
*326 la_data_out[33]
*327 la_data_out[34]
*328 la_data_out[35]
*329 la_data_out[36]
*330 la_data_out[37]
*331 la_data_out[38]
*332 la_data_out[39]
*333 la_data_out[3]
*334 la_data_out[40]
*335 la_data_out[41]
*336 la_data_out[42]
*337 la_data_out[43]
*338 la_data_out[44]
*339 la_data_out[45]
*340 la_data_out[46]
*341 la_data_out[47]
*342 la_data_out[48]
*343 la_data_out[49]
*344 la_data_out[4]
*345 la_data_out[50]
*346 la_data_out[51]
*347 la_data_out[52]
*348 la_data_out[53]
*349 la_data_out[54]
*350 la_data_out[55]
*351 la_data_out[56]
*352 la_data_out[57]
*353 la_data_out[58]
*354 la_data_out[59]
*355 la_data_out[5]
*356 la_data_out[60]
*357 la_data_out[61]
*358 la_data_out[62]
*359 la_data_out[63]
*360 la_data_out[64]
*361 la_data_out[65]
*362 la_data_out[66]
*363 la_data_out[67]
*364 la_data_out[68]
*365 la_data_out[69]
*366 la_data_out[6]
*367 la_data_out[70]
*368 la_data_out[71]
*369 la_data_out[72]
*370 la_data_out[73]
*371 la_data_out[74]
*372 la_data_out[75]
*373 la_data_out[76]
*374 la_data_out[77]
*375 la_data_out[78]
*376 la_data_out[79]
*377 la_data_out[7]
*378 la_data_out[80]
*379 la_data_out[81]
*380 la_data_out[82]
*381 la_data_out[83]
*382 la_data_out[84]
*383 la_data_out[85]
*384 la_data_out[86]
*385 la_data_out[87]
*386 la_data_out[88]
*387 la_data_out[89]
*388 la_data_out[8]
*389 la_data_out[90]
*390 la_data_out[91]
*391 la_data_out[92]
*392 la_data_out[93]
*393 la_data_out[94]
*394 la_data_out[95]
*395 la_data_out[96]
*396 la_data_out[97]
*397 la_data_out[98]
*398 la_data_out[99]
*399 la_data_out[9]
*400 la_oenb[0]
*401 la_oenb[100]
*402 la_oenb[101]
*403 la_oenb[102]
*404 la_oenb[103]
*405 la_oenb[104]
*406 la_oenb[105]
*407 la_oenb[106]
*408 la_oenb[107]
*409 la_oenb[108]
*410 la_oenb[109]
*411 la_oenb[10]
*412 la_oenb[110]
*413 la_oenb[111]
*414 la_oenb[112]
*415 la_oenb[113]
*416 la_oenb[114]
*417 la_oenb[115]
*418 la_oenb[116]
*419 la_oenb[117]
*420 la_oenb[118]
*421 la_oenb[119]
*422 la_oenb[11]
*423 la_oenb[120]
*424 la_oenb[121]
*425 la_oenb[122]
*426 la_oenb[123]
*427 la_oenb[124]
*428 la_oenb[125]
*429 la_oenb[126]
*430 la_oenb[127]
*431 la_oenb[12]
*432 la_oenb[13]
*433 la_oenb[14]
*434 la_oenb[15]
*435 la_oenb[16]
*436 la_oenb[17]
*437 la_oenb[18]
*438 la_oenb[19]
*439 la_oenb[1]
*440 la_oenb[20]
*441 la_oenb[21]
*442 la_oenb[22]
*443 la_oenb[23]
*444 la_oenb[24]
*445 la_oenb[25]
*446 la_oenb[26]
*447 la_oenb[27]
*448 la_oenb[28]
*449 la_oenb[29]
*450 la_oenb[2]
*451 la_oenb[30]
*452 la_oenb[31]
*453 la_oenb[32]
*454 la_oenb[33]
*455 la_oenb[34]
*456 la_oenb[35]
*457 la_oenb[36]
*458 la_oenb[37]
*459 la_oenb[38]
*460 la_oenb[39]
*461 la_oenb[3]
*462 la_oenb[40]
*463 la_oenb[41]
*464 la_oenb[42]
*465 la_oenb[43]
*466 la_oenb[44]
*467 la_oenb[45]
*468 la_oenb[46]
*469 la_oenb[47]
*470 la_oenb[48]
*471 la_oenb[49]
*472 la_oenb[4]
*473 la_oenb[50]
*474 la_oenb[51]
*475 la_oenb[52]
*476 la_oenb[53]
*477 la_oenb[54]
*478 la_oenb[55]
*479 la_oenb[56]
*480 la_oenb[57]
*481 la_oenb[58]
*482 la_oenb[59]
*483 la_oenb[5]
*484 la_oenb[60]
*485 la_oenb[61]
*486 la_oenb[62]
*487 la_oenb[63]
*488 la_oenb[64]
*489 la_oenb[65]
*490 la_oenb[66]
*491 la_oenb[67]
*492 la_oenb[68]
*493 la_oenb[69]
*494 la_oenb[6]
*495 la_oenb[70]
*496 la_oenb[71]
*497 la_oenb[72]
*498 la_oenb[73]
*499 la_oenb[74]
*500 la_oenb[75]
*501 la_oenb[76]
*502 la_oenb[77]
*503 la_oenb[78]
*504 la_oenb[79]
*505 la_oenb[7]
*506 la_oenb[80]
*507 la_oenb[81]
*508 la_oenb[82]
*509 la_oenb[83]
*510 la_oenb[84]
*511 la_oenb[85]
*512 la_oenb[86]
*513 la_oenb[87]
*514 la_oenb[88]
*515 la_oenb[89]
*516 la_oenb[8]
*517 la_oenb[90]
*518 la_oenb[91]
*519 la_oenb[92]
*520 la_oenb[93]
*521 la_oenb[94]
*522 la_oenb[95]
*523 la_oenb[96]
*524 la_oenb[97]
*525 la_oenb[98]
*526 la_oenb[99]
*527 la_oenb[9]
*528 user_clock2
*529 user_irq[0]
*530 user_irq[1]
*531 user_irq[2]
*540 wb_clk_i
*541 wb_rst_i
*542 wbs_ack_o
*543 wbs_adr_i[0]
*544 wbs_adr_i[10]
*545 wbs_adr_i[11]
*546 wbs_adr_i[12]
*547 wbs_adr_i[13]
*548 wbs_adr_i[14]
*549 wbs_adr_i[15]
*550 wbs_adr_i[16]
*551 wbs_adr_i[17]
*552 wbs_adr_i[18]
*553 wbs_adr_i[19]
*554 wbs_adr_i[1]
*555 wbs_adr_i[20]
*556 wbs_adr_i[21]
*557 wbs_adr_i[22]
*558 wbs_adr_i[23]
*559 wbs_adr_i[24]
*560 wbs_adr_i[25]
*561 wbs_adr_i[26]
*562 wbs_adr_i[27]
*563 wbs_adr_i[28]
*564 wbs_adr_i[29]
*565 wbs_adr_i[2]
*566 wbs_adr_i[30]
*567 wbs_adr_i[31]
*568 wbs_adr_i[3]
*569 wbs_adr_i[4]
*570 wbs_adr_i[5]
*571 wbs_adr_i[6]
*572 wbs_adr_i[7]
*573 wbs_adr_i[8]
*574 wbs_adr_i[9]
*575 wbs_cyc_i
*576 wbs_dat_i[0]
*577 wbs_dat_i[10]
*578 wbs_dat_i[11]
*579 wbs_dat_i[12]
*580 wbs_dat_i[13]
*581 wbs_dat_i[14]
*582 wbs_dat_i[15]
*583 wbs_dat_i[16]
*584 wbs_dat_i[17]
*585 wbs_dat_i[18]
*586 wbs_dat_i[19]
*587 wbs_dat_i[1]
*588 wbs_dat_i[20]
*589 wbs_dat_i[21]
*590 wbs_dat_i[22]
*591 wbs_dat_i[23]
*592 wbs_dat_i[24]
*593 wbs_dat_i[25]
*594 wbs_dat_i[26]
*595 wbs_dat_i[27]
*596 wbs_dat_i[28]
*597 wbs_dat_i[29]
*598 wbs_dat_i[2]
*599 wbs_dat_i[30]
*600 wbs_dat_i[31]
*601 wbs_dat_i[3]
*602 wbs_dat_i[4]
*603 wbs_dat_i[5]
*604 wbs_dat_i[6]
*605 wbs_dat_i[7]
*606 wbs_dat_i[8]
*607 wbs_dat_i[9]
*608 wbs_dat_o[0]
*609 wbs_dat_o[10]
*610 wbs_dat_o[11]
*611 wbs_dat_o[12]
*612 wbs_dat_o[13]
*613 wbs_dat_o[14]
*614 wbs_dat_o[15]
*615 wbs_dat_o[16]
*616 wbs_dat_o[17]
*617 wbs_dat_o[18]
*618 wbs_dat_o[19]
*619 wbs_dat_o[1]
*620 wbs_dat_o[20]
*621 wbs_dat_o[21]
*622 wbs_dat_o[22]
*623 wbs_dat_o[23]
*624 wbs_dat_o[24]
*625 wbs_dat_o[25]
*626 wbs_dat_o[26]
*627 wbs_dat_o[27]
*628 wbs_dat_o[28]
*629 wbs_dat_o[29]
*630 wbs_dat_o[2]
*631 wbs_dat_o[30]
*632 wbs_dat_o[31]
*633 wbs_dat_o[3]
*634 wbs_dat_o[4]
*635 wbs_dat_o[5]
*636 wbs_dat_o[6]
*637 wbs_dat_o[7]
*638 wbs_dat_o[8]
*639 wbs_dat_o[9]
*640 wbs_sel_i[0]
*641 wbs_sel_i[1]
*642 wbs_sel_i[2]
*643 wbs_sel_i[3]
*644 wbs_stb_i
*645 wbs_we_i
*646 boot_addr_int\[0\]
*647 boot_addr_int\[10\]
*648 boot_addr_int\[11\]
*649 boot_addr_int\[12\]
*650 boot_addr_int\[13\]
*651 boot_addr_int\[14\]
*652 boot_addr_int\[15\]
*653 boot_addr_int\[16\]
*654 boot_addr_int\[17\]
*655 boot_addr_int\[18\]
*656 boot_addr_int\[19\]
*657 boot_addr_int\[1\]
*658 boot_addr_int\[20\]
*659 boot_addr_int\[21\]
*660 boot_addr_int\[22\]
*661 boot_addr_int\[23\]
*662 boot_addr_int\[24\]
*663 boot_addr_int\[25\]
*664 boot_addr_int\[26\]
*665 boot_addr_int\[27\]
*666 boot_addr_int\[28\]
*667 boot_addr_int\[29\]
*668 boot_addr_int\[2\]
*669 boot_addr_int\[30\]
*670 boot_addr_int\[31\]
*671 boot_addr_int\[3\]
*672 boot_addr_int\[4\]
*673 boot_addr_int\[5\]
*674 boot_addr_int\[6\]
*675 boot_addr_int\[7\]
*676 boot_addr_int\[8\]
*677 boot_addr_int\[9\]
*678 cfgack_fll_int
*679 cfgad_fll_int\[0\]
*680 cfgad_fll_int\[1\]
*681 cfgd_fll_int\[0\]
*682 cfgd_fll_int\[10\]
*683 cfgd_fll_int\[11\]
*684 cfgd_fll_int\[12\]
*685 cfgd_fll_int\[13\]
*686 cfgd_fll_int\[14\]
*687 cfgd_fll_int\[15\]
*688 cfgd_fll_int\[16\]
*689 cfgd_fll_int\[17\]
*690 cfgd_fll_int\[18\]
*691 cfgd_fll_int\[19\]
*692 cfgd_fll_int\[1\]
*693 cfgd_fll_int\[20\]
*694 cfgd_fll_int\[21\]
*695 cfgd_fll_int\[22\]
*696 cfgd_fll_int\[23\]
*697 cfgd_fll_int\[24\]
*698 cfgd_fll_int\[25\]
*699 cfgd_fll_int\[26\]
*700 cfgd_fll_int\[27\]
*701 cfgd_fll_int\[28\]
*702 cfgd_fll_int\[29\]
*703 cfgd_fll_int\[2\]
*704 cfgd_fll_int\[30\]
*705 cfgd_fll_int\[31\]
*706 cfgd_fll_int\[3\]
*707 cfgd_fll_int\[4\]
*708 cfgd_fll_int\[5\]
*709 cfgd_fll_int\[6\]
*710 cfgd_fll_int\[7\]
*711 cfgd_fll_int\[8\]
*712 cfgd_fll_int\[9\]
*713 cfgq_fll_int\[0\]
*714 cfgq_fll_int\[10\]
*715 cfgq_fll_int\[11\]
*716 cfgq_fll_int\[12\]
*717 cfgq_fll_int\[13\]
*718 cfgq_fll_int\[14\]
*719 cfgq_fll_int\[15\]
*720 cfgq_fll_int\[16\]
*721 cfgq_fll_int\[17\]
*722 cfgq_fll_int\[18\]
*723 cfgq_fll_int\[19\]
*724 cfgq_fll_int\[1\]
*725 cfgq_fll_int\[20\]
*726 cfgq_fll_int\[21\]
*727 cfgq_fll_int\[22\]
*728 cfgq_fll_int\[23\]
*729 cfgq_fll_int\[24\]
*730 cfgq_fll_int\[25\]
*731 cfgq_fll_int\[26\]
*732 cfgq_fll_int\[27\]
*733 cfgq_fll_int\[28\]
*734 cfgq_fll_int\[29\]
*735 cfgq_fll_int\[2\]
*736 cfgq_fll_int\[30\]
*737 cfgq_fll_int\[31\]
*738 cfgq_fll_int\[3\]
*739 cfgq_fll_int\[4\]
*740 cfgq_fll_int\[5\]
*741 cfgq_fll_int\[6\]
*742 cfgq_fll_int\[7\]
*743 cfgq_fll_int\[8\]
*744 cfgq_fll_int\[9\]
*745 cfgreq_fll_int
*746 cfgweb_n_fll_int
*747 clk_gate_core_int
*748 clk_int
*749 core_busy_int
*750 data_ram_dout1\[0\]
*751 data_ram_dout1\[10\]
*752 data_ram_dout1\[11\]
*753 data_ram_dout1\[12\]
*754 data_ram_dout1\[13\]
*755 data_ram_dout1\[14\]
*756 data_ram_dout1\[15\]
*757 data_ram_dout1\[16\]
*758 data_ram_dout1\[17\]
*759 data_ram_dout1\[18\]
*760 data_ram_dout1\[19\]
*761 data_ram_dout1\[1\]
*762 data_ram_dout1\[20\]
*763 data_ram_dout1\[21\]
*764 data_ram_dout1\[22\]
*765 data_ram_dout1\[23\]
*766 data_ram_dout1\[24\]
*767 data_ram_dout1\[25\]
*768 data_ram_dout1\[26\]
*769 data_ram_dout1\[27\]
*770 data_ram_dout1\[28\]
*771 data_ram_dout1\[29\]
*772 data_ram_dout1\[2\]
*773 data_ram_dout1\[30\]
*774 data_ram_dout1\[31\]
*775 data_ram_dout1\[3\]
*776 data_ram_dout1\[4\]
*777 data_ram_dout1\[5\]
*778 data_ram_dout1\[6\]
*779 data_ram_dout1\[7\]
*780 data_ram_dout1\[8\]
*781 data_ram_dout1\[9\]
*782 debug_addr\[0\]
*783 debug_addr\[10\]
*784 debug_addr\[11\]
*785 debug_addr\[12\]
*786 debug_addr\[13\]
*787 debug_addr\[14\]
*788 debug_addr\[1\]
*789 debug_addr\[2\]
*790 debug_addr\[3\]
*791 debug_addr\[4\]
*792 debug_addr\[5\]
*793 debug_addr\[6\]
*794 debug_addr\[7\]
*795 debug_addr\[8\]
*796 debug_addr\[9\]
*797 debug_gnt
*798 debug_rdata\[0\]
*799 debug_rdata\[10\]
*800 debug_rdata\[11\]
*801 debug_rdata\[12\]
*802 debug_rdata\[13\]
*803 debug_rdata\[14\]
*804 debug_rdata\[15\]
*805 debug_rdata\[16\]
*806 debug_rdata\[17\]
*807 debug_rdata\[18\]
*808 debug_rdata\[19\]
*809 debug_rdata\[1\]
*810 debug_rdata\[20\]
*811 debug_rdata\[21\]
*812 debug_rdata\[22\]
*813 debug_rdata\[23\]
*814 debug_rdata\[24\]
*815 debug_rdata\[25\]
*816 debug_rdata\[26\]
*817 debug_rdata\[27\]
*818 debug_rdata\[28\]
*819 debug_rdata\[29\]
*820 debug_rdata\[2\]
*821 debug_rdata\[30\]
*822 debug_rdata\[31\]
*823 debug_rdata\[3\]
*824 debug_rdata\[4\]
*825 debug_rdata\[5\]
*826 debug_rdata\[6\]
*827 debug_rdata\[7\]
*828 debug_rdata\[8\]
*829 debug_rdata\[9\]
*830 debug_req
*831 debug_rvalid
*832 debug_wdata\[0\]
*833 debug_wdata\[10\]
*834 debug_wdata\[11\]
*835 debug_wdata\[12\]
*836 debug_wdata\[13\]
*837 debug_wdata\[14\]
*838 debug_wdata\[15\]
*839 debug_wdata\[16\]
*840 debug_wdata\[17\]
*841 debug_wdata\[18\]
*842 debug_wdata\[19\]
*843 debug_wdata\[1\]
*844 debug_wdata\[20\]
*845 debug_wdata\[21\]
*846 debug_wdata\[22\]
*847 debug_wdata\[23\]
*848 debug_wdata\[24\]
*849 debug_wdata\[25\]
*850 debug_wdata\[26\]
*851 debug_wdata\[27\]
*852 debug_wdata\[28\]
*853 debug_wdata\[29\]
*854 debug_wdata\[2\]
*855 debug_wdata\[30\]
*856 debug_wdata\[31\]
*857 debug_wdata\[3\]
*858 debug_wdata\[4\]
*859 debug_wdata\[5\]
*860 debug_wdata\[6\]
*861 debug_wdata\[7\]
*862 debug_wdata\[8\]
*863 debug_wdata\[9\]
*864 debug_we
*865 fetch_enable_int
*866 gpio_padcfg\[0\]
*867 gpio_padcfg\[100\]
*868 gpio_padcfg\[101\]
*869 gpio_padcfg\[102\]
*870 gpio_padcfg\[103\]
*871 gpio_padcfg\[104\]
*872 gpio_padcfg\[105\]
*873 gpio_padcfg\[106\]
*874 gpio_padcfg\[107\]
*875 gpio_padcfg\[108\]
*876 gpio_padcfg\[109\]
*877 gpio_padcfg\[10\]
*878 gpio_padcfg\[110\]
*879 gpio_padcfg\[111\]
*880 gpio_padcfg\[112\]
*881 gpio_padcfg\[113\]
*882 gpio_padcfg\[114\]
*883 gpio_padcfg\[115\]
*884 gpio_padcfg\[116\]
*885 gpio_padcfg\[117\]
*886 gpio_padcfg\[118\]
*887 gpio_padcfg\[119\]
*888 gpio_padcfg\[11\]
*889 gpio_padcfg\[120\]
*890 gpio_padcfg\[121\]
*891 gpio_padcfg\[122\]
*892 gpio_padcfg\[123\]
*893 gpio_padcfg\[124\]
*894 gpio_padcfg\[125\]
*895 gpio_padcfg\[126\]
*896 gpio_padcfg\[127\]
*897 gpio_padcfg\[128\]
*898 gpio_padcfg\[129\]
*899 gpio_padcfg\[12\]
*900 gpio_padcfg\[130\]
*901 gpio_padcfg\[131\]
*902 gpio_padcfg\[132\]
*903 gpio_padcfg\[133\]
*904 gpio_padcfg\[134\]
*905 gpio_padcfg\[135\]
*906 gpio_padcfg\[136\]
*907 gpio_padcfg\[137\]
*908 gpio_padcfg\[138\]
*909 gpio_padcfg\[139\]
*910 gpio_padcfg\[13\]
*911 gpio_padcfg\[140\]
*912 gpio_padcfg\[141\]
*913 gpio_padcfg\[142\]
*914 gpio_padcfg\[143\]
*915 gpio_padcfg\[144\]
*916 gpio_padcfg\[145\]
*917 gpio_padcfg\[146\]
*918 gpio_padcfg\[147\]
*919 gpio_padcfg\[148\]
*920 gpio_padcfg\[149\]
*921 gpio_padcfg\[14\]
*922 gpio_padcfg\[150\]
*923 gpio_padcfg\[151\]
*924 gpio_padcfg\[152\]
*925 gpio_padcfg\[153\]
*926 gpio_padcfg\[154\]
*927 gpio_padcfg\[155\]
*928 gpio_padcfg\[156\]
*929 gpio_padcfg\[157\]
*930 gpio_padcfg\[158\]
*931 gpio_padcfg\[159\]
*932 gpio_padcfg\[15\]
*933 gpio_padcfg\[160\]
*934 gpio_padcfg\[161\]
*935 gpio_padcfg\[162\]
*936 gpio_padcfg\[163\]
*937 gpio_padcfg\[164\]
*938 gpio_padcfg\[165\]
*939 gpio_padcfg\[166\]
*940 gpio_padcfg\[167\]
*941 gpio_padcfg\[168\]
*942 gpio_padcfg\[169\]
*943 gpio_padcfg\[16\]
*944 gpio_padcfg\[170\]
*945 gpio_padcfg\[171\]
*946 gpio_padcfg\[172\]
*947 gpio_padcfg\[173\]
*948 gpio_padcfg\[174\]
*949 gpio_padcfg\[175\]
*950 gpio_padcfg\[176\]
*951 gpio_padcfg\[177\]
*952 gpio_padcfg\[178\]
*953 gpio_padcfg\[179\]
*954 gpio_padcfg\[17\]
*955 gpio_padcfg\[180\]
*956 gpio_padcfg\[181\]
*957 gpio_padcfg\[182\]
*958 gpio_padcfg\[183\]
*959 gpio_padcfg\[184\]
*960 gpio_padcfg\[185\]
*961 gpio_padcfg\[186\]
*962 gpio_padcfg\[187\]
*963 gpio_padcfg\[188\]
*964 gpio_padcfg\[189\]
*965 gpio_padcfg\[18\]
*966 gpio_padcfg\[190\]
*967 gpio_padcfg\[191\]
*968 gpio_padcfg\[19\]
*969 gpio_padcfg\[1\]
*970 gpio_padcfg\[20\]
*971 gpio_padcfg\[21\]
*972 gpio_padcfg\[22\]
*973 gpio_padcfg\[23\]
*974 gpio_padcfg\[24\]
*975 gpio_padcfg\[25\]
*976 gpio_padcfg\[26\]
*977 gpio_padcfg\[27\]
*978 gpio_padcfg\[28\]
*979 gpio_padcfg\[29\]
*980 gpio_padcfg\[2\]
*981 gpio_padcfg\[30\]
*982 gpio_padcfg\[31\]
*983 gpio_padcfg\[32\]
*984 gpio_padcfg\[33\]
*985 gpio_padcfg\[34\]
*986 gpio_padcfg\[35\]
*987 gpio_padcfg\[36\]
*988 gpio_padcfg\[37\]
*989 gpio_padcfg\[38\]
*990 gpio_padcfg\[39\]
*991 gpio_padcfg\[3\]
*992 gpio_padcfg\[40\]
*993 gpio_padcfg\[41\]
*994 gpio_padcfg\[42\]
*995 gpio_padcfg\[43\]
*996 gpio_padcfg\[44\]
*997 gpio_padcfg\[45\]
*998 gpio_padcfg\[46\]
*999 gpio_padcfg\[47\]
*1000 gpio_padcfg\[48\]
*1001 gpio_padcfg\[49\]
*1002 gpio_padcfg\[4\]
*1003 gpio_padcfg\[50\]
*1004 gpio_padcfg\[51\]
*1005 gpio_padcfg\[52\]
*1006 gpio_padcfg\[53\]
*1007 gpio_padcfg\[54\]
*1008 gpio_padcfg\[55\]
*1009 gpio_padcfg\[56\]
*1010 gpio_padcfg\[57\]
*1011 gpio_padcfg\[58\]
*1012 gpio_padcfg\[59\]
*1013 gpio_padcfg\[5\]
*1014 gpio_padcfg\[60\]
*1015 gpio_padcfg\[61\]
*1016 gpio_padcfg\[62\]
*1017 gpio_padcfg\[63\]
*1018 gpio_padcfg\[64\]
*1019 gpio_padcfg\[65\]
*1020 gpio_padcfg\[66\]
*1021 gpio_padcfg\[67\]
*1022 gpio_padcfg\[68\]
*1023 gpio_padcfg\[69\]
*1024 gpio_padcfg\[6\]
*1025 gpio_padcfg\[70\]
*1026 gpio_padcfg\[71\]
*1027 gpio_padcfg\[72\]
*1028 gpio_padcfg\[73\]
*1029 gpio_padcfg\[74\]
*1030 gpio_padcfg\[75\]
*1031 gpio_padcfg\[76\]
*1032 gpio_padcfg\[77\]
*1033 gpio_padcfg\[78\]
*1034 gpio_padcfg\[79\]
*1035 gpio_padcfg\[7\]
*1036 gpio_padcfg\[80\]
*1037 gpio_padcfg\[81\]
*1038 gpio_padcfg\[82\]
*1039 gpio_padcfg\[83\]
*1040 gpio_padcfg\[84\]
*1041 gpio_padcfg\[85\]
*1042 gpio_padcfg\[86\]
*1043 gpio_padcfg\[87\]
*1044 gpio_padcfg\[88\]
*1045 gpio_padcfg\[89\]
*1046 gpio_padcfg\[8\]
*1047 gpio_padcfg\[90\]
*1048 gpio_padcfg\[91\]
*1049 gpio_padcfg\[92\]
*1050 gpio_padcfg\[93\]
*1051 gpio_padcfg\[94\]
*1052 gpio_padcfg\[95\]
*1053 gpio_padcfg\[96\]
*1054 gpio_padcfg\[97\]
*1055 gpio_padcfg\[98\]
*1056 gpio_padcfg\[99\]
*1057 gpio_padcfg\[9\]
*1058 instr_ram_dout1\[0\]
*1059 instr_ram_dout1\[10\]
*1060 instr_ram_dout1\[11\]
*1061 instr_ram_dout1\[12\]
*1062 instr_ram_dout1\[13\]
*1063 instr_ram_dout1\[14\]
*1064 instr_ram_dout1\[15\]
*1065 instr_ram_dout1\[16\]
*1066 instr_ram_dout1\[17\]
*1067 instr_ram_dout1\[18\]
*1068 instr_ram_dout1\[19\]
*1069 instr_ram_dout1\[1\]
*1070 instr_ram_dout1\[20\]
*1071 instr_ram_dout1\[21\]
*1072 instr_ram_dout1\[22\]
*1073 instr_ram_dout1\[23\]
*1074 instr_ram_dout1\[24\]
*1075 instr_ram_dout1\[25\]
*1076 instr_ram_dout1\[26\]
*1077 instr_ram_dout1\[27\]
*1078 instr_ram_dout1\[28\]
*1079 instr_ram_dout1\[29\]
*1080 instr_ram_dout1\[2\]
*1081 instr_ram_dout1\[30\]
*1082 instr_ram_dout1\[31\]
*1083 instr_ram_dout1\[3\]
*1084 instr_ram_dout1\[4\]
*1085 instr_ram_dout1\[5\]
*1086 instr_ram_dout1\[6\]
*1087 instr_ram_dout1\[7\]
*1088 instr_ram_dout1\[8\]
*1089 instr_ram_dout1\[9\]
*1090 irq_to_core_int\[0\]
*1091 irq_to_core_int\[10\]
*1092 irq_to_core_int\[11\]
*1093 irq_to_core_int\[12\]
*1094 irq_to_core_int\[13\]
*1095 irq_to_core_int\[14\]
*1096 irq_to_core_int\[15\]
*1097 irq_to_core_int\[16\]
*1098 irq_to_core_int\[17\]
*1099 irq_to_core_int\[18\]
*1100 irq_to_core_int\[19\]
*1101 irq_to_core_int\[1\]
*1102 irq_to_core_int\[20\]
*1103 irq_to_core_int\[21\]
*1104 irq_to_core_int\[22\]
*1105 irq_to_core_int\[23\]
*1106 irq_to_core_int\[24\]
*1107 irq_to_core_int\[25\]
*1108 irq_to_core_int\[26\]
*1109 irq_to_core_int\[27\]
*1110 irq_to_core_int\[28\]
*1111 irq_to_core_int\[29\]
*1112 irq_to_core_int\[2\]
*1113 irq_to_core_int\[30\]
*1114 irq_to_core_int\[31\]
*1115 irq_to_core_int\[3\]
*1116 irq_to_core_int\[4\]
*1117 irq_to_core_int\[5\]
*1118 irq_to_core_int\[6\]
*1119 irq_to_core_int\[7\]
*1120 irq_to_core_int\[8\]
*1121 irq_to_core_int\[9\]
*1122 lock_fll_int
*1123 masters_00_ar_addr\[0\]
*1124 masters_00_ar_addr\[10\]
*1125 masters_00_ar_addr\[11\]
*1126 masters_00_ar_addr\[12\]
*1127 masters_00_ar_addr\[13\]
*1128 masters_00_ar_addr\[14\]
*1129 masters_00_ar_addr\[15\]
*1130 masters_00_ar_addr\[16\]
*1131 masters_00_ar_addr\[17\]
*1132 masters_00_ar_addr\[18\]
*1133 masters_00_ar_addr\[19\]
*1134 masters_00_ar_addr\[1\]
*1135 masters_00_ar_addr\[20\]
*1136 masters_00_ar_addr\[21\]
*1137 masters_00_ar_addr\[22\]
*1138 masters_00_ar_addr\[23\]
*1139 masters_00_ar_addr\[24\]
*1140 masters_00_ar_addr\[25\]
*1141 masters_00_ar_addr\[26\]
*1142 masters_00_ar_addr\[27\]
*1143 masters_00_ar_addr\[28\]
*1144 masters_00_ar_addr\[29\]
*1145 masters_00_ar_addr\[2\]
*1146 masters_00_ar_addr\[30\]
*1147 masters_00_ar_addr\[31\]
*1148 masters_00_ar_addr\[3\]
*1149 masters_00_ar_addr\[4\]
*1150 masters_00_ar_addr\[5\]
*1151 masters_00_ar_addr\[6\]
*1152 masters_00_ar_addr\[7\]
*1153 masters_00_ar_addr\[8\]
*1154 masters_00_ar_addr\[9\]
*1155 masters_00_ar_burst\[0\]
*1156 masters_00_ar_burst\[1\]
*1157 masters_00_ar_cache\[0\]
*1158 masters_00_ar_cache\[1\]
*1159 masters_00_ar_cache\[2\]
*1160 masters_00_ar_cache\[3\]
*1161 masters_00_ar_len\[0\]
*1162 masters_00_ar_len\[1\]
*1163 masters_00_ar_len\[2\]
*1164 masters_00_ar_len\[3\]
*1165 masters_00_ar_len\[4\]
*1166 masters_00_ar_len\[5\]
*1167 masters_00_ar_len\[6\]
*1168 masters_00_ar_len\[7\]
*1169 masters_00_ar_lock
*1170 masters_00_ar_prot\[0\]
*1171 masters_00_ar_prot\[1\]
*1172 masters_00_ar_prot\[2\]
*1173 masters_00_ar_qos\[0\]
*1174 masters_00_ar_qos\[1\]
*1175 masters_00_ar_qos\[2\]
*1176 masters_00_ar_qos\[3\]
*1177 masters_00_ar_ready
*1178 masters_00_ar_region\[0\]
*1179 masters_00_ar_region\[1\]
*1180 masters_00_ar_region\[2\]
*1181 masters_00_ar_region\[3\]
*1182 masters_00_ar_size\[0\]
*1183 masters_00_ar_size\[1\]
*1184 masters_00_ar_size\[2\]
*1185 masters_00_ar_valid
*1186 masters_00_aw_addr\[0\]
*1187 masters_00_aw_addr\[10\]
*1188 masters_00_aw_addr\[11\]
*1189 masters_00_aw_addr\[12\]
*1190 masters_00_aw_addr\[13\]
*1191 masters_00_aw_addr\[14\]
*1192 masters_00_aw_addr\[15\]
*1193 masters_00_aw_addr\[16\]
*1194 masters_00_aw_addr\[17\]
*1195 masters_00_aw_addr\[18\]
*1196 masters_00_aw_addr\[19\]
*1197 masters_00_aw_addr\[1\]
*1198 masters_00_aw_addr\[20\]
*1199 masters_00_aw_addr\[21\]
*1200 masters_00_aw_addr\[22\]
*1201 masters_00_aw_addr\[23\]
*1202 masters_00_aw_addr\[24\]
*1203 masters_00_aw_addr\[25\]
*1204 masters_00_aw_addr\[26\]
*1205 masters_00_aw_addr\[27\]
*1206 masters_00_aw_addr\[28\]
*1207 masters_00_aw_addr\[29\]
*1208 masters_00_aw_addr\[2\]
*1209 masters_00_aw_addr\[30\]
*1210 masters_00_aw_addr\[31\]
*1211 masters_00_aw_addr\[3\]
*1212 masters_00_aw_addr\[4\]
*1213 masters_00_aw_addr\[5\]
*1214 masters_00_aw_addr\[6\]
*1215 masters_00_aw_addr\[7\]
*1216 masters_00_aw_addr\[8\]
*1217 masters_00_aw_addr\[9\]
*1218 masters_00_aw_burst\[0\]
*1219 masters_00_aw_burst\[1\]
*1220 masters_00_aw_cache\[0\]
*1221 masters_00_aw_cache\[1\]
*1222 masters_00_aw_cache\[2\]
*1223 masters_00_aw_cache\[3\]
*1224 masters_00_aw_len\[0\]
*1225 masters_00_aw_len\[1\]
*1226 masters_00_aw_len\[2\]
*1227 masters_00_aw_len\[3\]
*1228 masters_00_aw_len\[4\]
*1229 masters_00_aw_len\[5\]
*1230 masters_00_aw_len\[6\]
*1231 masters_00_aw_len\[7\]
*1232 masters_00_aw_lock
*1233 masters_00_aw_prot\[0\]
*1234 masters_00_aw_prot\[1\]
*1235 masters_00_aw_prot\[2\]
*1236 masters_00_aw_qos\[0\]
*1237 masters_00_aw_qos\[1\]
*1238 masters_00_aw_qos\[2\]
*1239 masters_00_aw_qos\[3\]
*1240 masters_00_aw_ready
*1241 masters_00_aw_region\[0\]
*1242 masters_00_aw_region\[1\]
*1243 masters_00_aw_region\[2\]
*1244 masters_00_aw_region\[3\]
*1245 masters_00_aw_size\[0\]
*1246 masters_00_aw_size\[1\]
*1247 masters_00_aw_size\[2\]
*1248 masters_00_aw_valid
*1249 masters_00_b_ready
*1250 masters_00_b_resp\[0\]
*1251 masters_00_b_resp\[1\]
*1252 masters_00_b_valid
*1253 masters_00_r_data\[0\]
*1254 masters_00_r_data\[10\]
*1255 masters_00_r_data\[11\]
*1256 masters_00_r_data\[12\]
*1257 masters_00_r_data\[13\]
*1258 masters_00_r_data\[14\]
*1259 masters_00_r_data\[15\]
*1260 masters_00_r_data\[16\]
*1261 masters_00_r_data\[17\]
*1262 masters_00_r_data\[18\]
*1263 masters_00_r_data\[19\]
*1264 masters_00_r_data\[1\]
*1265 masters_00_r_data\[20\]
*1266 masters_00_r_data\[21\]
*1267 masters_00_r_data\[22\]
*1268 masters_00_r_data\[23\]
*1269 masters_00_r_data\[24\]
*1270 masters_00_r_data\[25\]
*1271 masters_00_r_data\[26\]
*1272 masters_00_r_data\[27\]
*1273 masters_00_r_data\[28\]
*1274 masters_00_r_data\[29\]
*1275 masters_00_r_data\[2\]
*1276 masters_00_r_data\[30\]
*1277 masters_00_r_data\[31\]
*1278 masters_00_r_data\[3\]
*1279 masters_00_r_data\[4\]
*1280 masters_00_r_data\[5\]
*1281 masters_00_r_data\[6\]
*1282 masters_00_r_data\[7\]
*1283 masters_00_r_data\[8\]
*1284 masters_00_r_data\[9\]
*1285 masters_00_r_last
*1286 masters_00_r_ready
*1287 masters_00_r_resp\[0\]
*1288 masters_00_r_resp\[1\]
*1289 masters_00_r_valid
*1290 masters_00_w_data\[0\]
*1291 masters_00_w_data\[10\]
*1292 masters_00_w_data\[11\]
*1293 masters_00_w_data\[12\]
*1294 masters_00_w_data\[13\]
*1295 masters_00_w_data\[14\]
*1296 masters_00_w_data\[15\]
*1297 masters_00_w_data\[16\]
*1298 masters_00_w_data\[17\]
*1299 masters_00_w_data\[18\]
*1300 masters_00_w_data\[19\]
*1301 masters_00_w_data\[1\]
*1302 masters_00_w_data\[20\]
*1303 masters_00_w_data\[21\]
*1304 masters_00_w_data\[22\]
*1305 masters_00_w_data\[23\]
*1306 masters_00_w_data\[24\]
*1307 masters_00_w_data\[25\]
*1308 masters_00_w_data\[26\]
*1309 masters_00_w_data\[27\]
*1310 masters_00_w_data\[28\]
*1311 masters_00_w_data\[29\]
*1312 masters_00_w_data\[2\]
*1313 masters_00_w_data\[30\]
*1314 masters_00_w_data\[31\]
*1315 masters_00_w_data\[3\]
*1316 masters_00_w_data\[4\]
*1317 masters_00_w_data\[5\]
*1318 masters_00_w_data\[6\]
*1319 masters_00_w_data\[7\]
*1320 masters_00_w_data\[8\]
*1321 masters_00_w_data\[9\]
*1322 masters_00_w_last
*1323 masters_00_w_ready
*1324 masters_00_w_strb\[0\]
*1325 masters_00_w_strb\[1\]
*1326 masters_00_w_strb\[2\]
*1327 masters_00_w_strb\[3\]
*1328 masters_00_w_valid
*1329 masters_01_ar_addr\[0\]
*1330 masters_01_ar_addr\[10\]
*1331 masters_01_ar_addr\[11\]
*1332 masters_01_ar_addr\[12\]
*1333 masters_01_ar_addr\[13\]
*1334 masters_01_ar_addr\[14\]
*1335 masters_01_ar_addr\[15\]
*1336 masters_01_ar_addr\[16\]
*1337 masters_01_ar_addr\[17\]
*1338 masters_01_ar_addr\[18\]
*1339 masters_01_ar_addr\[19\]
*1340 masters_01_ar_addr\[1\]